      Date: 11/21/2019      Time: 09:29:19  

     ___________________________________________________
     |                                                 |
     |  Livermore  Software  Technology  Corporation   |
     |                                                 |
     |  7374 Las Positas Road                          |
     |  Livermore, CA 94551                            |
     |  Tel: (925) 449-2500  Fax: (925) 449-2507       |
     |  www.lstc.com                                   |
     |_________________________________________________|
     |                                                 |
     |  LS-DYNA, A Program for Nonlinear Dynamic       |
     |  Analysis of Structures in Three Dimensions     |
     |  Version : smp d R10.1.0   Date: 01/12/2018     |
     |  Revision: 123264          Time: 16:34:46       |
     |                                                 |
     |  Features enabled in this version:              |
     |    Shared Memory Parallel                       |
     |    CESE CHEMISTRY EM ICFD STOCHASTIC_PARTICLES  |
     |    FFTW (multi-dimensional FFTW Library)        |
     |    ARPACK (nonsymmetric eigensolver library)    |
     |    Interactive Graphics                         |
     |    ANSYS Database format                        |
     |    ANSYS License (ANSYS160)                     |
     |                                                 |
     |  Licensed to: Stellenbosch University - 1409    |
     |  Issued by  : LSTC_01142019                     |
     |                                                 |
     |  Platform   : Xeon64 System                     |
     |  OS Level   : Linux 2.6.32 ulm                  |
     |  Compiler   : Intel Fortran Compiler 16.0 SSE2  |
     |  Hostname   : naude-HP-Pavilion-17-Notebook-PC  |
     |  Precision  : Double precision (I8R8)           |
     |  SVN Version: 123300                            |
     |                                                 |
     |  Unauthorized use infringes LSTC copyrights     |
     |_________________________________________________|


 Input file: /home/naude/Documents/Masters-Project/Models/LSDyna_Unit_Cell_Corner/Steel_Impli

 The native file format       : 64-bit small endian
 Memory size from command line:    20000000

 ********  notice  ********  notice  ********  notice  ********
 *                                                            *
 * This is the LS-DYNA Finite Element code.                   *
 *                                                            *
 * Neither LSTC nor the authors assume any responsibility for *
 * the validity, accuracy, or applicability of any results    *
 * obtained from this system. Users must verify their own     *
 * results.                                                   *
 *                                                            *
 * LSTC endeavors to make the LS-DYNA code as complete,       *
 * accurate and easy to use as possible.                      *
 * Suggestions and comments are welcomed.  Please report any  *
 * errors encountered in either the documentation or results  *
 * immediately to LSTC through your site focus.               *
 *                                                            *
 * Copyright (C) 1990-2018                                    *
 * by Livermore Software Technology Corp. (LSTC)              *
 * All rights reserved                                        *
 *                                                            *
 ********  notice  ********  notice  ********  notice  ********
 
LSTC Environment Variables:
 
LSTC_LICENSE=network
LSTC_LICENSE_SERVER=license.sun.ac.za
 

 Beginning of keyword reader                                   11/21/19 09:29:19


         **            ******  **********    *******                            
         **           *******  **********   ********                            
         **          **            **      ***                                  
         **           *******      **      **                                   
         **                 **     **      ***                                  
         *********   ********      **       ********                            
         *********   ******        **         ******                            
                                                                                
                                                                                
**           ******    *******    **    **  *      **    *****                  
**          *******    ********   **    **  **     **   *******                 
**         **          **   ***   **    **  ***    **  ***   ***                
**           **        **   ***   **    **  ***    **  ***   ***                
**             **   ** **    **     ****    ** **  **  *********                
**               **    **   ***      **     **    ***  **     **                
**               **    **   ***      **     **    ***  **     **                
*********  *******     *******       **     **     **  **     **                
*********  *******     ******        **     **      *  **     **                

            L I S T   O F   K E Y W O R D   C O U N T S   

total # of *AIRBAG_option..........................       0
total # of *AIRBAG_INTERACTION.....................       0
total # of *AIRBAG_PARTICLE........................       0
total # of *AIRBAG_REFERENCE_GEOMETRY..............       0
total # of *AIRBAG_SHELL_REFERENCE_GEOMETRY........       0
total # of *ALE_AMBIENT_HYDROSTATIC................       0
total # of *ALE_COUPLING_NODAL.....................       0
total # of *ALE_ELEMENT_POROSITY...................       0
total # of *ALE_FAIL_SWITCH_MMG....................       0
total # of *ALE_FRAGMENTATION......................       0
total # of *ALE_FSI_SWITCH_MMG.....................       0
total # of *ALE_REFERENCE_SYSTEM_GROUP.............       0
total # of *ALE_SWITCH_MMG.........................       0
total # of *BOUNDARY_ACOUSTIC_COUPLING.............       0
total # of *BOUNDARY_ACOUSTIC_COUPLING_MISMATCH....       0
total # of *BOUNDARY_ACOUSTIC_MAPPING..............       0
total # of *BOUNDARY_AEROHEATING_SEGMENT...........       0
total # of *BOUNDARY_ALE_MIXING_LENGTH.............       0
total # of *BOUNDARY_AMBIENT.......................       0
total # of *BOUNDARY_CONVECTION_SEGMENT............       0
total # of *BOUNDARY_CONVECTION_SET................       0
total # of *BOUNDARY_CYCLIC........................       0
total # of *BOUNDARY_DE_NON_REFLECTING.............       0
total # of *BOUNDARY_ELEMENT_METHOD_FLOW...........       0
total # of *BOUNDARY_ELEMENT_METHOD_CONTROL........       0
total # of *BOUNDARY_ELEMENT_METHOD_NEIGHBOR.......       0
total # of *BOUNDARY_ELEMENT_METHOD_WAKE...........       0
total # of *BOUNDARY_ELEMENT_METHOD_SYMMETRY.......       0
total # of *BOUNDARY_FIRE_SEGMENT..................       0
total # of *BOUNDARY_FLUX_SEGMENT..................       0
total # of *BOUNDARY_FLUX_SET......................       0
total # of *BOUNDARY_NON_REFLECTING................       0
total # of *BOUNDARY_MCOL..........................       0
total # of *BOUNDARY_PORE_FLUID ...................       0
total # of *BOUNDARY_PRESCRIBED_MOTION_NODE.+RIGID.       0
total # of *BOUNDARY_PRESCRIBED_FINAL_GEOMETRY.....       0
total # of *BOUNDARY_PRESCRIBED_MOTION_SET.........       0
total # of *BOUNDARY_PRESCRIBED_ORIENTATION........       0
total # of *BOUNDARY_PRESCRIBED_ACCELEROMETER......       0
total # of *BOUNDARY_PRESSURE_OUTFLOW_SEGMENT......       0
total # of *BOUNDARY_PRESSURE_OUTFLOW_SET..........       0
total # of *BOUNDARY_PWP_OPTION ...................       0
total # of *BOUNDARY_RADIATION_SEGMENT.(Type 1)....       0
total # of *BOUNDARY_RADIATION_SET.................       0
total # of *BOUNDARY_RADIATION_SEGMENT.(Type 2)....       0
total # of *BOUNDARY_RADIATION_SET.(Type 2)........       0
total # of *BOUNDARY_SLIDING_PLANE.................       0
total # of *BOUNDARY_SPC_NODE......................       0
total # of *BOUNDARY_SPC_SET.......................       2
total # of *BOUNDARY_SPH_FLOW......................       0
total # of *BOUNDARY_SPH_SYMMETRY_PLANE............       0
total # of *BOUNDARY_SYMMETRY_FAILURE..............       0
total # of *BOUNDARY_TEMPERATURE_NODE..............       0
total # of *BOUNDARY_TEMPERATURE_SET...............       0
total # of *BOUNDARY_THERMAL_BULKFLOW_SET..........       0
total # of *BOUNDARY_THERMAL_BULKFLOW_ELEMENT......       0
total # of *BOUNDARY_THERMAL_BULKNODE..............       0
total # of *BOUNDARY_THERMAL_WELD..................       0
total # of *BOUNDARY_USA...........................       0
total # of *BOUNDARY_PZEPOT........................       0
total # of *CESE_BOUNDARY_AXISYMMETRIC_PART........       0
total # of *CESE_BOUNDARY_AXISYMMETRIC_PART_SET....       0
total # of *CESE_BOUNDARY_AXISYMMETRIC_SEGMENT.....       0
total # of *CESE_BOUNDARY_AXISYMMETRIC_SET.........       0
total # of *CESE_BOUNDARY_CONJ_HEAT_PART...........       0
total # of *CESE_BOUNDARY_CONJ_HEAT_PART_SET.......       0
total # of *CESE_BOUNDARY_CONJ_HEAT_SEGMENT........       0
total # of *CESE_BOUNDARY_CONJ_HEAT_SET............       0
total # of *CESE_BOUNDARY_CYCLIC_PART..............       0
total # of *CESE_BOUNDARY_CYCLIC_PART_SET..........       0
total # of *CESE_BOUNDARY_CYCLIC_SEGMENT...........       0
total # of *CESE_BOUNDARY_CYCLIC_SET...............       0
total # of *CESE_BOUNDARY_FSI_PART.................       0
total # of *CESE_BOUNDARY_FSI_PART_SET.............       0
total # of *CESE_BOUNDARY_FSI_SEGMENT..............       0
total # of *CESE_BOUNDARY_FSI_SET..................       0
total # of *CESE_BOUNDARY_NON_REFLECTIVE_PART......       0
total # of *CESE_BOUNDARY_NON_REFLECTIVE_PART_SET..       0
total # of *CESE_BOUNDARY_NON_REFLECTIVE_SEGMENT...       0
total # of *CESE_BOUNDARY_NON_REFLECTIVE_SET.......       0
total # of *CESE_BOUNDARY_PRESCRIBED_PART..........       0
total # of *CESE_BOUNDARY_PRESCRIBED_PART_SET......       0
total # of *CESE_BOUNDARY_PRESCRIBED_SEGMENT.......       0
total # of *CESE_BOUNDARY_PRESCRIBED_SET...........       0
total # of *CESE_BOUNDARY_REFLECTIVE_PART..........       0
total # of *CESE_BOUNDARY_REFLECTIVE_PART_SET......       0
total # of *CESE_BOUNDARY_REFLECTIVE_SEGMENT.......       0
total # of *CESE_BOUNDARY_REFLECTIVE_SET...........       0
total # of *CESE_BOUNDARY_SLIDING_PART.............       0
total # of *CESE_BOUNDARY_SLIDING_PART_SET.........       0
total # of *CESE_BOUNDARY_SLIDING_SEGMENT..........       0
total # of *CESE_BOUNDARY_SLIDING_SET..............       0
total # of *CESE_BOUNDARY_SOLID_WALL_PART..........       0
total # of *CESE_BOUNDARY_SOLID_WALL_PART_SET......       0
total # of *CESE_BOUNDARY_SOLID_WALL_SEGMENT.......       0
total # of *CESE_BOUNDARY_SOLID_WALL_SET...........       0
total # of *CESE_CHEMISTRY_D3PLOT..................       0
total # of *CESE_CONTROL_SOLVER....................       0
total # of *CESE_CONTROL_TIMESTEP..................       0
total # of *CESE_CONTROL_LIMITER...................       0
total # of *CESE_CONTROL_MESH_MOV..................       0
total # of *CESE_CONTROL_TURBULENCE................       0
total # of *CESE_DRAG..............................       0
total # of *CESE_EOS...............................       0
total # of *CESE_FSI_EXCLUDE.......................       0
total # of *CESE_DEFINE_POINT......................       0
total # of *CESE_INITIAL...........................       0
total # of *CESE_INITIAL_CHEMISTRY.................       0
total # of *CESE_INITIAL_CHEMISTRY_ELEMENT.........       0
total # of *CESE_INITIAL_CHEMISTRY_PART............       0
total # of *CESE_INITIAL_CHEMISTRY_SET.............       0
total # of *CESE_INITIAL_SET.......................       0
total # of *CESE_INITIAL_SEGMENT...................       0
total # of *CESE_MAT...............................       0
total # of *CESE_PART..............................       0
total # of *CESE_PART_MESH.........................       0
total # of *CESE_SURFACE_MECHSSID_D3PLOT...........       0
total # of *CESE_SURFACE_MECHVARS_D3PLOT...........       0
total # of *CHEMISTRY_COMPOSITION..................       0
total # of *CHEMISTRY_CONTROL_0D...................       0
total # of *CHEMISTRY_CONTROL_1D...................       0
total # of *CHEMISTRY_CONTROL_CSP..................       0
total # of *CHEMISTRY_CONTROL_FULL.................       0
total # of *CHEMISTRY_CONTROL_INFLATOR.............       0
total # of *CHEMISTRY_CONTROL_ZND..................       0
total # of *CHEMISTRY_DET_INITIATION...............       0
total # of *CHEMISTRY_INFLATOR_PROPERTIES..........       0
total # of *CHEMISTRY_PATH.........................       0
total # of *COMPONENT_GEBOD........................       0
total # of *COMPONENT_GEBOD_JOINT..................       0
total # of *COMPONENT_HYBRIDIII....................       0
total # of *COMPONENT_HYBRIDIII_JOINT..............       0
total # of *CONSTRAINED_BEAM_IN_SOLID..............       0
total # of *CONSTRAINED_BUTT_WELD..................       0
total # of *CONSTRAINED_EXTRA_NODES................       0
total # of *CONSTRAINED_EXTRA_NODES_SET............       0
total # of *CONSTRAINED_GLOBAL.....................       0
total # of *CONSTRAINED_INTERPOLATION..............       0
total # of *CONSTRAINED_JOINT_type.................       0
total # of *CONSTRAINED_JOINT_COOR_type............       0
total # of *CONSTRAINED_JOINT_..._FAILURE..........       0
total # of *CONSTRAINED_JOINT_USER_FORCE...........       0
total # of *CONSTRAINED_JOINT_STIFFNESS_type.......       0
total # of *CONSTRAINED_LAGRANGE_IN_SOLID..........       0
total # of *CONSTRAINED_LINEAR.....................       0
total # of *CONSTRAINED_LINEAR_LOCAL...............       0
total # of *CONSTRAINED_NODAL_RIGID_BODY_option....       0
total # of *CONSTRAINED_NODE_SET...................       0
total # of *CONSTRAINED_RIGID_BODIES...............       0
total # of *CONSTRAINED_RIGID_BODY_STOPPERS........       0
total # of *CONSTRAINED_SHELL-SOLID................       0
total # of *CONSTRAINED_SPLINE.....................       0
total # of *CONSTRAINED_SPOTWELD+CONSTRAINED_RIVET.       0
total # of *CONSTRAINED_SPR2/INTERPOLATION_SPOTWELD       0
total # of *CONSTRAINED_TIE-BREAK..................       0
total # of *CONSTRAINED_TIE-NODE-FAILURE...........       0
total # of *CONTACT_option.........................       0
total # of *CONTACT_GEOMETRIC_option...............       0
total # of *CONTACT_GUIDED_CABLE...................       0
total # of *CONTACT_1D.............................       0
total # of *CONTACT_2D.............................       0
total # of *CONTACT_2D_AUTOMATIC...................       0
total # of *CONTROL_ACOUSTIC.......................       0
total # of *CONTROL_ADAPTIVITY.....................       0
total # of *CONTROL_BULK_VISCOSITY.................       0
total # of *CONTROL_CHECK..........................       0
total # of *CONTROL_CONTACT........................       0
total # of *CONTROL_COUPLING.......................       0
total # of *CONTROL_CPM............................       0
total # of *CONTROL_CPU............................       0
total # of *CONTROL_DYNAMIC_RELAXATION (DAMPING)...       0
total # of *CONTROL_EFG............................       0
total # of *CONTROL_ENERGY.........................       0
total # of *CONTROL_EXPLOSIVE_SHADOW...............       0
total # of *CONTROL_FREQUENCY_DOMAIN...............       0
total # of *CONTROL_FREQUENCY_RESPONSE_FUNCTION....       0
total # of *CONTROL_HOURGLASS......................       0
total # of *MPP_option.............................       0
total # of *CONTROL_MAT............................       0
total # of *CONTROL_NONLOCAL.......................       0
total # of *CONTROL_OUTPUT.........................       0
total # of *CONTROL_PARALLEL.......................       0
total # of *CONTROL_REFINE.........................       0
total # of *CONTROL_SHELL..........................       0
total # of *CONTROL_SOLID..........................       0
total # of *CONTROL_SOLUTION.......................       0
total # of *CONTROL_SPH............................       0
total # of *CONTROL_SUBCYCLE.......................       0
total # of *CONTROL_TERMINATION....................       1
total # of *CONTROL_THERMAL_SOLVER.................       0
total # of *CONTROL_THERMAL_TIMESTEP...............       0
total # of *CONTROL_THERMAL_NONLINEAR..............       0
total # of *CONTROL_THERMAL_EIGENVALUE.............       0
total # of *CONTROL_TIMESTEP.......................       0
total # of *CONTROL_UNITS..........................       0
total # of *CONTROL_VIBRO_ACOUSTIC.................       0
total # of *DAMPING_GLOBAL.........................       0
total # of *DAMPING_PART_MASS......................       0
total # of *DAMPING_PART_MASS_SET..................       0
total # of *DAMPING_PART_STIFFNESS.................       0
total # of *DAMPING_PART_STIFFNESS_SET.............       0
total # of *DAMPING_RELATIVE.......................       0
total # of *DAMPING_STRUCTURAL.....................       0
total # of *CONTROL_DISCRETE_SPHERE................       0
total # of *DATABASE_ABSTAT........................       0
total # of *DATABASE_ATDOUT........................       0
total # of *DATABASE_AVSFLT........................       0
total # of *DATABASE_BNDOUT........................       1
total # of *DATABASE_CPM_SENSOR....................       0
total # of *DATABASE_CURVOUT.......................       0
total # of *DATABASE_DISBOUT.......................       0
total # of *DATABASE_DCFAIL........................       0
total # of *DATABASE_DEFGEO........................       0
total # of *DATABASE_DEFORC........................       0
total # of *DATABASE_DEMASSFLOW....................       0
total # of *DATABASE_ELOUT.........................       1
total # of *DATABASE_FSI...........................       0
total # of *DATABASE_FSI_SENSOR....................       0
total # of *DATABASE_GCEOUT........................       0
total # of *DATABASE_GLSTAT........................       1
total # of *DATABASE_H3OUT.........................       0
total # of *DATABASE_JNTFORC.......................       0
total # of *DATABASE_MASSOUT.......................       0
total # of *DATABASE_MATSUM........................       0
total # of *DATABASE_MPGS.......... ...............       0
total # of *DATABASE_MOVIE.........................       0
total # of *DATABASE_NCFORC........................       0
total # of *DATABASE_NODFOR........................       0
total # of *DATABASE_NODOUT........................       0
total # of *DATABASE_PBSTAT........................       0
total # of *DATABASE_PGSTAT........................       0
total # of *DATABASE_PG_SENSOR.....................       0
total # of *DATABASE_PLLYOUT.......................       0
total # of *DATABASE_PRTUBEOUT.....................       0
total # of *DATABASE_RBDOUT........................       0
total # of *DATABASE_RCFORC_MOMENT.................       0
total # of *DATABASE_RCFORC........................       0
total # of *DATABASE_RWFORC........................       0
total # of *DATABASE_SBTOUT........................       0
total # of *DATABASE_SECFORC.......................       0
total # of *DATABASE_SLEOUT........................       0
total # of *DATABASE_SPCFORC.......................       0
total # of *DATABASE_SPH...........................       0
total # of *DATABASE_TRACER........................       0
total # of *DATABASE_TRACER_ALE....................       0
total # of *DATABASE_TRACER_GENERATE...............       0
total # of *DATABASE_SUPERPLASTIC..................       0
total # of *DATABASE_SWFORC........................       0
total # of *DATABASE_TPRINT........................       0
total # of *DATABASE_TRHIST........................       0
total # of *DATABASE_BINARY_D3PLOT.................       1
total # of *DATABASE_BINARY_D3THDT.................       0
total # of *DATABASE_BINARY_D3PART.................       0
total # of *DATABASE_BINARY_D3DRFL.................       0
total # of *DATABASE_BINARY_D3DUMP.................       0
total # of *DATABASE_BINARY_RUNRSF.................       0
total # of *DATABASE_BINARY_INTFOR.................       0
total # of *DATABASE_BINARY_FSIFOR.................       0
total # of *DATABASE_BINARY_CPMFOR.................       0
total # of *DATABASE_BINARY_PBMFOR.................       0
total # of *DATABASE_BINARY_PGFOR..................       0
total # of *DATABASE_BINARY_DEMFOR.................       0
total # of *DATABASE_BINARY_BLSTFOR................       0
total # of *DATABASE_CROSS_SECTION_option..........       0
total # of *DATABASE_EXTENT_AVS....................       0
total # of *DATABASE_EXTENT_MOVIE .................       0
total # of *DATABASE_EXTENT_MPGS...................       0
total # of *DATABASE_EXTENT_BINARY.................       0
total # of *DATABASE_EXTENT_BINARY_COMP............       0
total # of *DATABASE_EXTENT_D3PART.................       0
total # of *DATABASE_EXTENT_INTFOR.................       0
total # of *DATABASE_FREQUENCY_ASCII_option........       0
total # of *DATABASE_FREQUENCY_BINARY_D3ACS........       0
total # of *DATABASE_FREQUENCY_BINARY_D3ATV........       0
total # of *DATABASE_FREQUENCY_BINARY_D3FTG........       0
total # of *DATABASE_FREQUENCY_BINARY_D3PSD........       0
total # of *DATABASE_FREQUENCY_BINARY_D3RMS........       0
total # of *DATABASE_FREQUENCY_BINARY_D3SPCM.......       0
total # of *DATABASE_FREQUENCY_BINARY_D3SSD........       0
total # of *DATABASE_HISTORY_NODE_option...........       0
total # of *DATABASE_HISTORY_SOLID_option..........       0
total # of *DATABASE_HISTORY_BEAM_option...........       0
total # of *DATABASE_HISTORY_SHELL_option..........       0
total # of *DATABASE_HISTORY_SPH_option............       0
total # of *DATABASE_HISTORY_TSHELL_option.........       0
total # of *DATABASE_NODAL_FORCE_GROUP.............       0
total # of *DATABASE_POWER_SPECTRAL_DENSITY........       0
total # of *DATABASE_POWER_SPECTRAL_DENSITY_FREQUE.       0
total # of *DATABASE_PWP_FLOW .....................       0
total # of *DEFINE_ADAPTIVE_SOLID_TO_DES...........       0
total # of *DEFINE_ADAPTIVE_SOLID_TO_HBOND.........       0
total # of *DEFINE_ADAPTIVE_SOLID_TO_SPH...........       0
total # of *DEFINE_BEAM_SOLID_COUPLING.............       0
total # of *DEFINE_BOX.............................       0
total # of *DEFINE_CONSTRUCTION_STAGES ............       0
total # of *DEFINE_CONTACT_EXCLUSION...............       0
total # of *DEFINE_COORDINATE_option...............       0
total # of *DEFINE_CPM_BAG_INTERACTION.............       0
total # of *DEFINE_CPM_CHAMBER.....................       0
total # of *DEFINE_CPM_GAS_PROPERTIES..............       0
total # of *DEFINE_CPM_VENT........................       0
total # of *DEFINE_CURVE...........................       1
total # of *DEFINE_CURVE_DUPLICATE.................       0
total # of *DEFINE_CURVE_ENTITY....................       0
total # of *DEFINE_CURVE_FUNCTION..................       0
total # of *DEFINE_DE_ACTIVE_REGION................       0
total # of *DEFINE_DE_INJECTION....................       0
total # of *DEFINE_DE_TO_SURFACE_COUPLING..........       0
total # of *DEFINE_DE_TO_SURFACE_EROSION...........       0
total # of *DEFINE_DE_TO_SURFACE_TIED..............       0
total # of *DEFINE_DE_TO_BEAM_COUPLING.............       0
total # of *DEFINE_DE_BOND.........................       0
total # of *DEFINE_DE_HBOND........................       0
total # of *DEFINE_DE_BY_PART......................       0
total # of *DEFINE_DE_MASSFLOW_PLANE...............       0
total # of *DEFINE_FRICTION........................       0
total # of *DEFINE_FUNCTION........................       0
total # of *DEFINE_GROUND_MOTION...................       0
total # of *DEFINE_PRESSURE_TUBE...................       0
total # of *ALE_STRUCTURED_MESH....................       0
total # of *SMMALE_MESH_VOLUME_FILLING.............       0
total # of *DEFINE_MULTI_SHEET_CONNECTORS..........       0
total # of *DEFINE_PLANE...........................       0
total # of *DEFINE_PBLAST_HEGEO....................       0
total # of *DEFINE_PBLAST_AIRGEO...................       0
total # of *DEFINE_SPH_ACTIVE_REGION...............       0
total # of *DEFINE_SPH_INJECTION...................       0
total # of *DEFINE_VECTOR..........................       0
total # of *DEFINE_VECTOR_NODE.....................       0
total # of *DEFINE_SD_ORIENTATION..................       0
total # of *DEFINE_ELEMENT_DEATH_SOLID.............       0
total # of *DEFINE_ELEMENT_DEATH_BEAM..............       0
total # of *DEFINE_ELEMENT_DEATH_SHELL.............       0
total # of *DEFINE_ELEMENT_DEATH_TSHELL............       0
total # of *DEFINE_PG_BAG_INTERACTION..............       0
total # of *DEFINE_PG_CHAMBER......................       0
total # of *DEFINE_PG_GAS_PROPERTIES...............       0
total # of *DEFINE_PG_VENT.........................       0
total # of *DEFINE_SHELL_ELEMENT_DEATH_THICK.......       0
total # of *DEFINE_SPH_TO_SPH_COUPLING.............       0
total # of *DEFINE_SPH_DE_COUPLING.................       0
total # of *DEFINE_SPOTWELD_RUPTURE_STRESS.........       0
total # of *DEFINE_SPOTWELD_RUPTURE_PARAMETER......       0
total # of *DEFINE_STAGED_CONSTRUCTION_PART .......       0
total # of *DATABASE_BKSTAT........................       0
total # of *DEFORMABLE_TO_RIGID....................       0
total # of *DEFORMABLE_TO_RIGID_AUTOMATIC..........       0
total # of *DEFORMABLE_TO_RIGID_INERTIA............       0
total # of *ELEMENT_BEAM_option....................       0
total # of *ELEMENT_BEAM_PULLEY....................       0
total # of *ELEMENT_BEAM_SOURCE....................       0
total # of *ELEMENT_DISCRETE.......................       0
total # of *ELEMENT_MASS...........................       0
total # of *ELEMENT_MASS_PART......................       0
total # of *ELEMENT_SEATBELT.......................       0
total # of *ELEMENT_SEATBELT_ACCELEROMETER.........       0
total # of *ELEMENT_SEATBELT_PRETENSIONER..........       0
total # of *ELEMENT_SEATBELT_RETRACTOR.............       0
total # of *ELEMENT_SEATBELT_SENSOR................       0
total # of *ELEMENT_SEATBELT_SLIPRING..............       0
total # of *ELEMENT_SHELL_option...................      11
total # of *ELEMENT_SHELL_NURBS_PATCH..............       0
total # of *ELEMENT_SOLID..........................       0
total # of *ELEMENT_SOLID_NURBS_PATCH..............       0
total # of *ELEMENT_SPH............................       0
total # of *ELEMENT_TSHELL_option..................       0
total # of *ELEMENT_INERTIA........................       0
total # of *MODULE_LOAD............................       0
total # of *MODULE_USE.............................       0
total # of *SENSOR_SWITCH_SHELL_TO_VENT............       0
total # of *SENSOR_CPM_AIRBAG......................       0
total # of *PG_SWITCH_SHELL_TO_VENT................       0
total # of *EM_2DAXI...............................       0
total # of *EM_BOUNDARY............................       0
total # of *EM_CIRCUIT.............................       0
total # of *EM_CIRCUIT_CONNECT.....................       0
total # of *EM_CIRCUIT_RANDLE......................       0
total # of *EM_CIRCUIT_ROGO........................       0
total # of *EM_CONTACT.............................       0
total # of *EM_CONTACT_RESISTANCE..................       0
total # of *EM_CONTROL.............................       0
total # of *EM_CONTROL_CONTACT.....................       0
total # of *EM_CONTROL_SWITCH......................       0
total # of *EM_CONTROL_SWITCH_CONTACT..............       0
total # of *EM_CONTROL_TIMESTEP....................       0
total # of *EM_DATABASE_CIRCUIT....................       0
total # of *EM_DATABASE_CIRCUIT0D..................       0
total # of *EM_DATABASE_ELOUT......................       0
total # of *EM_DATABASE_FIELDINE...................       0
total # of *EM_DATABASE_GLOBALENERGY...............       0
total # of *EM_DATABASE_NODOUT.....................       0
total # of *EM_DATABASE_PARTDATA...................       0
total # of *EM_DATABASE_POINTOUT...................       0
total # of *EM_DATABASE_ROGO.......................       0
total # of *EM_DATABASE_TIMESTEP...................       0
total # of *EM_EOS_BURGESS.........................       0
total # of *EM_EOS_MEADON..........................       0
total # of *EM_EOS_PERMEABILITY....................       0
total # of *EM_EOS_TABULATED1......................       0
total # of *EM_EOS_TABULATED2......................       0
total # of *EM_EXTERNAL_FIELD......................       0
total # of *EM_ISOPOTENTIAL........................       0
total # of *EM_ISOPOTENTIAL_CONNECT................       0
total # of *EM_MAT_001.............................       0
total # of *EM_MAT_002.............................       0
total # of *EM_MAT_003.............................       0
total # of *EM_MAT_004.............................       0
total # of *EM_POINT_SET...........................       0
total # of *EM_OUTPUT..............................       0
total # of *EM_ROTATION_AXIS.......................       0
total # of *EM_SOLVER_BEM..........................       0
total # of *EM_SOLVER_BEMMAT.......................       0
total # of *EM_SOLVER_FEM..........................       0
total # of *EM_SOLVER_FEMBEM.......................       0
total # of *EM_VOLTAGE_DROP........................       0
total # of *EOS_option.............................       0
total # of *FATIGUE................................       0
total # of *FATIGUE_MEAN_STRESS_CORRECTION.........       0
total # of *FREQUENCY_DOMAIN_ACCELERATION_UNIT.....       0
total # of *FREQUENCY_DOMAIN_ACOUSTIC_BEM..........       0
total # of *FREQUENCY_DOMAIN_ACOUSTIC_FEM..........       0
total # of *FREQUENCY_DOMAIN_ACOUSTIC_FRINGE_PLOT..       0
total # of *FREQUENCY_DOMAIN_ACOUSTIC_INCIDENT_WAVE       0
total # of *FREQUENCY_DOMAIN_ACOUSTIC_SOUND_SPEED..       0
total # of *FREQUENCY_DOMAIN_FRF...................       0
total # of *FREQUENCY_DOMAIN_MODE..................       0
total # of *FREQUENCY_DOMAIN_PATH..................       0
total # of *FREQUENCY_DOMAIN_RANDOM_VIBRATION......       0
total # of *FREQUENCY_DOMAIN_RESPONSE_SPECTRUM.....       0
total # of *FREQUENCY_DOMAIN_SEA...................       0
total # of *FREQUENCY_DOMAIN_SEA_CONNECTION........       0
total # of *FREQUENCY_DOMAIN_SEA_INPUTPOWER........       0
total # of *FREQUENCY_DOMAIN_SEA_SUBSYSTEM.........       0
total # of *FREQUENCY_DOMAIN_SSD...................       0
total # of *FV_MESHES..............................       0
total # of *FV_FSI.................................       0
total # of *HOURGLASS..............................       0
total # of *ICFD_BOUNDARY_CONJ_HEAT................       0
total # of *ICFD_BOUNDARY_FLUX_TEMP................       0
total # of *ICFD_BOUNDARY_FREESLIP.................       0
total # of *ICFD_BOUNDARY_FSI......................       0
total # of *ICFD_BOUNDARY_FSWAVE...................       0
total # of *ICFD_BOUNDARY_GROUND...................       0
total # of *ICFD_BOUNDARY_NONSLIP..................       0
total # of *ICFD_BOUNDARY_PRESCRIBED_MOVEMESH......       0
total # of *ICFD_BOUNDARY_PRESCRIBED_PRE...........       0
total # of *ICFD_BOUNDARY_PRESCRIBED_TEMP..........       0
total # of *ICFD_BOUNDARY_PRESCRIBED_TURBULENCE....       0
total # of *ICFD_BOUNDARY_PRESCRIBED_VEL...........       0
total # of *ICFD_BOUNDARY_WINDKESSEL...............       0
total # of *ICFD_CONTROL_ADAPT.....................       0
total # of *ICFD_CONTROL_ADAPT_SIZE................       0
total # of *ICFD_CONTROL_ADVECTION.................       0
total # of *ICFD_CONTROL_CONJ......................       0
total # of *ICFD_CONTROL_CONVERGENCE...............       0
total # of *ICFD_CONTROL_DEM_COUPLING..............       0
total # of *ICFD_CONTROL_FSI.......................       0
total # of *ICFD_CONTROL_FREESURF..................       0
total # of *ICFD_CONTROL_GENERAL...................       0
total # of *ICFD_CONTROL_IMPOSED_MOVE..............       0
total # of *ICFD_CONTROL_LOAD......................       0
total # of *ICFD_CONTROL_MEMCHECK..................       0
total # of *ICFD_CONTROL_MESH......................       0
total # of *ICFD_CONTROL_MESH_MOV..................       0
total # of *ICFD_CONTROL_OUTPUT....................       0
total # of *ICFD_CONTROL_OUTPUT_SUBDOM.............       0
total # of *ICFD_CONTROL_PARTITION.................       0
total # of *ICFD_CONTROL_POROUS....................       0
total # of *ICFD_CONTROL_RANS......................       0
total # of *ICFD_CONTROL_STEADY....................       0
total # of *ICFD_CONTROL_SURFMESH..................       0
total # of *ICFD_CONTROL_TAVERAGE..................       0
total # of *ICFD_CONTROL_TIME......................       0
total # of *ICFD_CONTROL_TRANSIENT.................       0
total # of *ICFD_CONTROL_TURBULENCE................       0
total # of *ICFD_CONTROL_TURB_SYNTHESIS............       0
total # of *ICFD_DATABASE_AVERAGE..................       0
total # of *ICFD_DATABASE_DRAG.....................       0
total # of *ICFD_DATABASE_FLUX.....................       0
total # of *ICFD_DATABASE_HTC......................       0
total # of *ICFD_DATABASE_NODEAVG..................       0
total # of *ICFD_DATABASE_NODOUT...................       0
total # of *ICFD_DATABASE_POINTAVG.................       0
total # of *ICFD_DATABASE_POINTOUT.................       0
total # of *ICFD_DATABASE_RESIDUALS................       0
total # of *ICFD_DATABASE_TEMP.....................       0
total # of *ICFD_DATABASE_TIMESTEP.................       0
total # of *ICFD_DATABASE_UINDEX...................       0
total # of *ICFD_DEFINE_POINT......................       0
total # of *ICFD_DEFINE_NONINERTIAL................       0
total # of *ICFD_DEFINE_WAVE_DAMPING...............       0
total # of *ICFD_INITIAL...........................       0
total # of *ICFD_INITIAL_TURBULENCE................       0
total # of *ICFD_MAT...............................       0
total # of *ICFD_MODEL_NONNEWT.....................       0
total # of *ICFD_MODEL_POROUS.....................       0
total # of *ICFD_PART..............................       0
total # of *ICFD_PART_VOL..........................       0
total # of *ICFD_SECTION...........................       0
total # of *ICFD_SET_NODE..........................       0
total # of *ICFD_SOLVER_SPLIT......................       0
total # of *ICFD_SOLVER_TOL_LSET...................       0
total # of *ICFD_SOLVER_TOL_MMOV...................       0
total # of *ICFD_SOLVER_TOL_MOM....................       0
total # of *ICFD_SOLVER_TOL_MONOLITHIC.............       0
total # of *ICFD_SOLVER_TOL_PRE....................       0
total # of *ICFD_SOLVER_TOL_TEMP...................       0
total # of *ICFD_SOLVER_TOL_TURBULENCE.............       0
total # of *INITIAL_AIRBAG_PARTICLE_POSITION.......       0
total # of *INITIAL_AXIAL_FORCE_BEAM...............       0
total # of *INITIAL_CRASHFRONT.....................       0
total # of *INITIAL_DETONATION.....................       0
total # of *INITIAL_FATIGUE_DAMAGE_RATIO...........       0
total # of *INITIAL_FIELD_SOLID....................       0
total # of *INITIAL_IMPULSE_MINE...................       0
total # of *INITIAL_MOMENTUM.......................       0
total # of *INITIAL_PWP_DEPTH .....................       0
total # of *INITIAL_STRAIN_SHELL...................       0
total # of *INITIAL_STRAIN_SHELL_SET...............       0
total # of *INITIAL_STRAIN_SOLID...................       0
total # of *INITIAL_STRAIN_TSHELL..................       0
total # of *INITIAL_STRESS_BEAM....................       0
total # of *INITIAL_STRESS_DEPTH ..................       0
total # of *INITIAL_STRESS_SECTION.................       0
total # of *INITIAL_STRESS_SHELL...................       0
total # of *INITIAL_STRESS_SHELL_SET...............       0
total # of *INITIAL_STRESS_SOLID...................       0
total # of *INITIAL_STRESS_SOLID_SET...............       0
total # of *INITIAL_STRESS_SPH.....................       0
total # of *INITIAL_STRESS_TSHELL..................       0
total # of *INITIAL_TEMPERATURE_SET................       0
total # of *INITIAL_TEMPERATURE_NODE...............       0
total # of *INITIAL_VELOCITY.......................       0
total # of *INITIAL_VELOCITY_NODE..................       0
total # of *INITIAL_VELOCITY_RIGID_BODY............       0
total # of *INITIAL_VOID_PART......................       0
total # of *INITIAL_VOID_SET.......................       0
total # of *INITIAL_VOLUME_FRACTION_GEOMETRY.......       0
total # of *INITIAL_HYDROSTATIC_ALE................       0
total # of *INITIAL_EOS_ALE........................       0
total # of *INITIAL_VAPOR_PART.....................       0
total # of *INITIAL_ALE_MAPPING....................       0
total # of *INITIAL_LAG_MAPPING....................       0
total # of *INTEGRATION_BEAM.......................       0
total # of *INTEGRATION_SHELL......................       0
total # of *INTERFACE_COMPONENT_option.............       0
total # of *INTERFACE_DE_HBOND.....................       0
total # of *INTERFACE_LINKING_DISCRETE_NODE........       0
total # of *INTERFACE_LINKING_DISCRETE_NODE_SET....       0
total # of *INTERFACE_LINKING_EDGE.................       0
total # of *INTERFACE_LINKING_SEGMENT..............       0
total # of *INTERFACE_SPRINGBACK...................       0
total # of *INTERFACE_SSI_AUXILIARY_FREE_FIELD.....       0
total # of *INTERFACE_SSI_STATIC...................       0
total # of *INTERFACE_SSI..........................       0
total # of *LOAD_ALE_CONVECTION ...................       0
total # of *LOAD_AIR_PRESSURE......................       0
total # of *LOAD_BEAM..............................       0
total # of *LOAD_BEAM_SET..........................       0
total # of *LOAD_BODY_GENERALIZED..................       0
total # of *LOAD_BODY_POROUS.......................       0
total # of *LOAD_BODY_RX...........................       0
total # of *LOAD_BODY_RY...........................       0
total # of *LOAD_BODY_RZ...........................       0
total # of *LOAD_BODY_X............................       0
total # of *LOAD_BODY_Y............................       0
total # of *LOAD_BODY_Z............................       0
total # of *LOAD_BRODE.............................       0
total # of *LOAD_BLAST.............................       0
total # of *LOAD_BLAST_ENHANCED....................       0
total # of *LOAD_BLAST_SEGMENT.....................       0
total # of *LOAD_BLAST_SEGMENT_SET.................       0
total # of *LOAD_DENSITY_DEPTH ....................       0
total # of *LOAD_GRAVITY_PART .....................       0
total # of *LOAD_HEAT_CONTROLLER ..................       0
total # of *LOAD_HEAT_GENERATION_SET...............       0
total # of *LOAD_HEAT_GENERATION_SOLID.............       0
total # of *LOAD_HEAT_GENERATION_SET_SHELL.........       0
total # of *LOAD_HEAT_GENERATION_SHELL.............       0
total # of *LOAD_NODE..............................       0
total # of *LOAD_NODE_SET..........................       0
total # of *LOAD_NSG...............................       0
total # of *LOAD_REMOVE_PART ......................       0
total # of *LOAD_SEGMENT...........................       2
total # of *LOAD_SEGMENT_FSILNK....................       0
total # of *LOAD_SEGMENT_NONUNIFORM................       0
total # of *LOAD_SEGMENT_SET.......................       0
total # of *LOAD_SEGMENT_SET_NONUNIFORM............       0
total # of *LOAD_SEISMIC_SSI_NODE..................       0
total # of *LOAD_SEISMIC_SSI_SET...................       0
total # of *LOAD_SEISMIC_SSI_POINT.................       0
total # of *LOAD_SEISMIC_SSI_DECONV................       0
total # of *LOAD_SHELL.............................       0
total # of *LOAD_SHELL_SET.........................       0
total # of *LOAD_STIFFEN_PART .....................       0
total # of *LOAD_SUPERPLASTIC_FORMING..............       0
total # of *LOAD_SURFACE_STRESS....................       0
total # of *LOAD_THERMAL_option_ELEMENT............       0
total # of *LOAD_THERMAL_option_NODE...............       0
total # of *LOAD_THERMAL_option....................       0
total # of *LOAD_THERMAL_LOAD_CURVE................       0
total # of *LOAD_THERMAL_TOPAZ ....................       0
total # of *LOAD_THERMAL_VARIABLE_SHELL_option.....       0
total # of *LOAD_THERMAL_VARIABLE_BEAM _option.....       0
total # of *LOAD_VIBRO_ACOUSTIC....................       0
total # of *LOAD_VOLUME_LOSS ......................       0
total # of *LSO_DOMAIN.............................       0
total # of *LSO_ID_SET.............................       0
total # of *LSO_POINT_SET..........................       0
total # of *LSO_REGION.............................       0
total # of *LSO_TIME_SEQUENCE......................       0
total # of *LSO_VARIABLE_GROUP.....................       0
total # of *MAT_option.............................       1
total # of *MAT_THERMAL_option.....................       0
total # of *MAT_NONLOCAL...........................       0
total # of *MESH_BL................................       0
total # of *MESH_BL_SYM............................       0
total # of *MESH_EMBEDSHELL........................       0
total # of *MESH_INTERF............................       0
total # of *MESH_SIZE..............................       0
total # of *MESH_SIZE_SHAPE........................       0
total # of *MESH_SURFACE_ELEMENT...................       0
total # of *MESH_SURFACE_NODE......................       0
total # of *MESH_VOLUME............................       0
total # of *MESH_VOLUME_ELEMENT....................       0
total # of *MESH_VOLUME_NODE.......................       0
total # of *MESH_VOLUME_PART.......................       0
total # of *NODE...................................      24
total # of *NODE_MERGE.............................       0
total # of *NODE_MERGE_TOLERANCE...................       0
total # of *PART_option card.......................       1
total # of *PART_ANNEAL_option.....................       0
total # of *PARTICLE_BLAST.........................       0
total # of *PARTICLE_GENERAL.......................       0
total # of *RIGIDWALL_option.......................       0
total # of *SECTION_option.........................       1
total # of *SET_2D_SEGMENT.........................       0
total # of *SET_BEAM...............................       0
total # of *SET_BOX ...............................       0
total # of *SET_DISCRETE...........................       0
total # of *SET_MODE...............................       0
total # of *SET_NODE_option........................       2
total # of *SET_PART...............................       0
total # of *SET_POINT..............................       0
total # of *SET_SEGMENT............................       0
total # of *SET_SHELL_option.......................       0
total # of *SET_SOLID..............................       0
total # of *SET_TSHELL.............................       0
total # of *STOCHASTIC_SPRAY_PARTICLES.............       0
total # of *STOCHASTIC_TBX_PARTICLES...............       0
total # of *TERMINATION_BODY.......................       0
total # of *TERMINATION_DELETED_SHELLS.............       0
total # of *TERMINATION_DELETED_SOLIDS.............       0
total # of *TERMINATION_NODE.......................       0
total # of *TERMINATION_CONTACT....................       0
total # of *TITLE..................................       1
total # of *USER_INTERFACE_CONTROL.................       0
total # of *USER_INTERFACE_FRICTION................       0
total # of *USER_INTERFACE_FORCES..................       0
total # of *USER_INTERFACE_CONDUCTIVITY............       0
total # of *USER_LOAD..............................       0
total # of *USER_NONLOCAL_SEARCH...................       0
total # of *USER_PARAMETER.........................       0
total # of *CHANGE_BOUNDARY_CONDITIONS.............       0
total # of *CHANGE_CONTACT_SMALL_PENETRATION.......       0
total # of *CHANGE_RIGID_BODY_CONSTRAINTS..........       0
total # of *CHANGE_RIGID_BODY_INERTIA..............       0
total # of *CHANGE_THERMAL_PARAMETERS..............       0
total # of *CHANGE_VELOCITY_ZERO...................       0
total # of *CHANGE_VELOCITY_RIGID_BODY.............       0
total # of *DELETE_ALECPL..........................       0
total # of *DELETE_CONTACT.........................       0
total # of *DELETE_CONTACT_2DAUTO..................       0
total # of *DELETE_FSI.............................       0
total # of *DELETE_ENTITY..........................       0
total # of *DELETE_ELEMENT_SOLID...................       0
total # of *DELETE_ELEMENT_BEAM....................       0
total # of *DELETE_ELEMENT_SHELL...................       0
total # of *DELETE_ELEMENT_TSHELL..................       0
total # of *DELETE_PART............................       0
total # of *RIGID_DEFORMABLE_CONTROL...............       0
total # of *RIGID_DEFORMABLE_D2R...................       0
total # of *RIGID_DEFORMABLE_R2D...................       0
total # of *STRESS_INITIALIZATION..................       0

 Memory required to process keyword     :      252635 

 LS-DYNA will perform a structural only analysis 



 LS-DYNA keyword deck by LS-PrePost                                      
            code input version =1993
            formats            =mlarg



    IMPLICIT CONTROL CARD 1.  General Data

    implicit/explicit switching flag ..............       1
          eq.0: explicit analysis                       
          eq.1: implicit analysis                       
          eq.2: explicit, then seamless springback      
          eq.4: implicit with automatic implicit/explicit switching
          eq.5: implicit with automatic implicit/explicit switching
                with mandatory implicit finish                     
          eq.6: explicit with intermittent eigenvalues  
          eq.-n: load curve n gives flag vs. time       

    initial time step for implicit solution .......    0.5000E-03

    element formulation after switching ...........       2
          eq.1: switch to fully integrated element      
          eq.2: retain element formulation              

    number of steps for nonlinear springback ......       1

    geometric (initial stress) stiffness flag .....       1
          eq.1: include                                 
          eq.2: ignore                                  

    consistent tangential stiffness flag ..........       0
          eq.0: do not use                              
          eq.1: use                                     

    displacement termination tolerance 1 ..........    0.0000E+00
          eq.0: use time based termination (default)    

    displacement termination tolerance 2 ..........    0.0000E+00
          eq.0: use time based termination (default)    

    zero out velocities when switching to implicit.       0
          eq.0: keep velocities (default)    
          eq.1: zero velocities 



    IMPLICIT CONTROL CARD 2.  Solution

    solution method ...............................      12
          eq.-1:linear, multiple loading w/same stiffness
          eq.1: linear                               
          eq.2: nonlinear, BFGS updates              
          eq.3: nonlinear, Broydens updates          
          eq.4: nonlinear, DFP updates               
          eq.5: nonlinear, Davidon updates           
          eq.6: nonlinear, BFGS updates+arclength    
          eq.7: nonlinear, Broydens updates+arclength
          eq.8: nonlinear, DFP updates+arclength     
          eq.9: nonlinear, Davidon updates+arclength 
          eq.12:nonlinear, (experimental), BFGS updates 
                           with optional arclength

    iteration limit per reformation ...............      11

    reformation limit per step ....................      15
          lt.0 implicit will declare convergence after 
               |maxref| matrix reformations

    displacement convergence tolerance ............    0.1000E-02

    energy convergence tolerance ..................    0.1000E-01

    residual convergence tolerance ................    0.9990E+11

    line search convergence tolerance .............    0.9000E+00

    absolute convergence tolerance ................    0.1000E-09

    displacement norm .............................       2
          eq.1: increment vs. total this step           
          eq.2: increment vs. total whole simulation    

    divergence flag ...............................       1
          eq.1: reform stiffness if residual grows      
          eq.2: ignore growing residual                 

    initial stiffness interval ....................       1
          eq.1: form new stiffness each step            
          eq.n: new stiffness every n steps             

    nonlinear solver print flag ...................       0
          eq.0: no iteration info to screen             
          eq.1: print iteration info to screen, files   
          eq.2: extra iteration info to d3hsp and messag



    IMPLICIT CONTROL CARD 2a.  Solution

    convergence norms .............................       2
          lt.0: defaults to 4 but scales rotations      
                with characteristic length              
          eq.1: use translational and rotational DOFs   
          eq.2: use only translational DOFs             
          eq.4: use translational plus rotational DOFs  

    d3iter control ................................       0
          eq.0: use sense switch control (default)      
          eq.n: write d3iter database every time step   
                but rewind every n-th time step         

    line search method ............................       4
          eq.1: based on translational dofs (default)   
          eq.2: based on residual function              
          eq.3: based on translational+rotational dofs  

    line search direction .........................       2
          eq.1: traditional form (ls970 and earlier)    
          eq.2: search only independent dofs (default)  
          eq.3: adaptive line search (experimental)     
          eq.4: curved line search (experimental)       

    experimental line search parameters ...........
          curvature factor 0-straight,1-full curved    0.0000E+00
          radius of influence (curved search)          0.0000E+00
          adaptive line search weight (0. to 1.)       0.0000E+00
          init. step reduction (0. to 1.,adaptive)     0.0000E+00
    contact penetration check .....................       0
          eq.0: no checking (default)                   
          eq.1: check for contact penetration           



    IMPLICIT CONTROL CARD 2b.  Joints              

    implicit treatment for spherical joint ........       0
          eq.1: constraint formulation (DEFAULT)
          eq.2: penalty formulation  

    implicit treatment for revolute joint .........       0
          eq.1: constraint formulation (DEFAULT)
          eq.2: penalty formulation  

    implicit treatment for cylindrical joint ......       0
          eq.1: constraint formulation (DEFAULT)
          eq.2: penalty formulation  



    IMPLICIT CONTROL CARD 3.  Linear Solver

    linear equation solver ........................      5
          eq. 4: sparse direct single - auto out-of-core 
          eq. 5: sparse direct double - auto out-of-core 
          eq. 6: BCSLIB-EXT double - auto out-of-core    
          eq.11: iterative, Conjugate Gradient           
          eq.12: iterative, C.G. with Jacobi             
          eq.13: iterative, C.G. with Inc. Choleski      
          eq.14: iterative, Lanczos                      
          eq.15: iterative, Lanczos with Jacobi          
          eq.16: iterative, Lanczos with Inc. Choleski   
          eq.22: iterative, C.G. with Diagonal Precond   
          eq.23: iterative, C.G. with Sym GS Precond     
          eq.24: iterative, C.G. with SSOR Precond       
          eq.25: iterative, C.G. with ILDLT Precond      
          eq.26: iterative, C.G. with ILDLT w/extra fill 

    linear solver print flag ......................      0
          eq.0: no printing                             
          eq.1: small amount of summary statistics      
          eq.2: additional statistics                   
          eq.3: debug level recommended only for problem-debugging

    negative eigenvalue option ....................      2
          eq.1: retry step if negative eigenvalue       
          eq.2: ignore negative eigenvalues             

    sparse ordering option ........................      0
          eq.0: ordering chosen by LS-DYNA              
          eq.1: order with Multiple Minimum Degree      
          eq.2: order with METIS                        

    Drilling Rotation Constraint Method ...........      4
          eq.1: add additional stiffness                
          eq.3: no constraint method                    
          eq.4: add force and stiffness                 

    Drilling Rotation Constraint Parameter ........    1.0000E+00

    AUTOSPC Control Switch ........................      1
          eq.1: AUTOSPC On                              
          eq.2: AUTOSPC Off                             

    AUTOSPC Tolerance .............................    1.0000E-08

    Matrix Assembly Method ........................      2
          eq.2: Use LCPACK (default)                    
          eq.3: Use LCPACK w/experimental unsymmetric   

    Matrix Dumping Flag ...........................      0

    User requested number of Metis executions .....      0
    Matrix Reordering Reuse Parameter .............    0.0000E+00



    IMPLICIT CONTROL CARD 4.  Auto Time Step Control

    time step control method ......................       0
          eq.0: fixed (constant) time step size         
          eq.1: variable automatic time step size       
          eq.2: variable automatic time step size with  
                max step limited by thermal time step   
          lt.0: time step size specified by load curve  

    target iteration count ........................      11

    iteration window ..............................       0

    minimum allowable step size ...................    0.0000E+00

    maximum allowable step size ...................    0.0000E+00
          eq.0: max. allowed step size is 10*initial step size
          gt.0: maximum allowed step size                 
          lt.0: -(curve ID) for max. allowed step size    

    time interval to run explicit when switching       0.0000E+00
          lt.0: -(curve ID) for time interval             

    no. of failed steps before switching ..........       1

    min. no. of explicit steps after switching ....       0

    artificial stabilization flag .................       2
          eq.1: on  ('springback' analysis DEFAULT)      
          eq.2: off ('standard' analysis DEFAULT)        

    scale factor for artificial stabilization .....    0.1000E+01

    start time for artificial stabilization .......    0.0000E+00
          eq.0.0: immediately                            

    end time for artificial stabilization .........    0.0000E+00
          eq.0.0: termination time



    IMPLICIT CONTROL CARD 5.  Dynamic and Eigenvalue

    implicit dynamic flag .........................       0
          eq.0: implicit static
          eq.1: implicit dynamic
          eq.2: modal superposition (eigenvalue analysis)
          eq.3: modal superposition using d3eigv file    

    first  Newmark parameter (default=.50) ........    0.0000E+00

    second Newmark parameter (default=.25) ........    0.0000E+00

    number of eigenvalues to extract ..............       0
          lt.0: -(curve ID) for intermittent extraction   

    eigenvalue frequency shift ....................    0.0000E+00

    number of constraint modes to extract .........       0

    number of attachment modes to extract .........       0

    number of eigen      modes to extract .........       0

    buckling mode flag ............................       0
          eq.0: compute eigenvalues
          eq.1: compute buckling modes

    buckling eigenmethod ..........................       1
          eq.1: Lanczos (default)
          eq.2: Power Method (reqd for inertia relief)

    inertia relief computation flag ...............       0
          eq.0: do not perform inertia relief computation
          eq.1: perform inertia relief computation impl/expl

          eq.2: perform inertia relief computation impl only

    inertia relief mode threshold .................    0.0000E+00

    Eigenvector Dumping Flag ......................       0

    Modal Stress Recovering Scaling Parameter .....    0.1000E-02

    flag for optional eigenvalue control card .....       0
          eq.0: no card - use defaults
          ge.1: next cards specifies additional parameters

    optional time integration parameter for composite
    time integration scheme .......................    0.0000E+00
          eq.0: no composite scheme
          gt.0: value is alpha in Bathe scheme
          lt.0: value is alpha in HHT scheme


    IMPLICIT CONTROL CARD 6.  Arc Length            

    node controlling arc length method ............       0
          eq.0: generalized arc length method

    direction controlling arc length method .......       0

    arc length size  ..............................    0.0000E+00
          eq.0: chosen from initial stepsize

    arc length formulation ........................       1
          eq.1: Crisfield (generalized arc length only)
          eq.2: Ramm 
          eq.3: Modified Crisfield
                (used with nonlinear solution method 12 only)

    arc length damping option .....................       2
          eq.1: on
          eq.2: off

    psi, influence of load/time parameter in
    predictor step.................................    0.0000E+00

    alpha, influence of predictor step on
    cylindrical center in corrector steps..........    0.0000E+00

    time when arclength is first initiated.........    0.0000E+00


 c o n t r o l   i n f o r m a t i o n

    CONTROL CARD 1. Model Size-General

    number of materials or property sets...........       1

    number of nodal+scalar points..................      24

    number of merged nodal points..................       0

    number of solid elements.......................       0

    number of beam elements........................       0

    number of shell elements.......................      11

    number of thick shell elements.................       0

    number of user defined material subroutines....       0

    number of material groups tied to solids.......       0

    number of tracer particles.....................       0

    number of super elements.......................       0

    number of solid tetrahedrons with 10 nodes.....       0

    number of quadratic shell elements.............       0

    number of shells with extra degrees of freedom.       0

    number of solids with extra degrees of freedom.       0

    number of user defined sections................       0

    activate sensor capability (inactive=0)........       0

    number of user defined solid element types.....       0

    number of solid interpolation elements.........       0

    number of user defined shell element types.....       0

    number of shell interpolation elements.........       0

    number of constrained nodes for interpolation..       0

    consistent mass matrix for user-def elements...       0

    number of shell nurbs patches..................       0

    number of solid nurbs patches..................       0


    CONTROL CARD 2. Model Size-Boundary Conditions

    number of spc nodes............................       4

    number of spc coordinates......................       0

    number of velocity cards.......................       0

    number of non-reflecting boundary segments.....       0

    number of b. c. cards..........................       0

    number of b. c. cards with failure.............       0

    number of box definition for b. c. card........       0

    number of nodes/interface for cyclic symmetry..       0

    number of rigid bodies with attachment nodes...       0


    CONTROL CARD 3. Model Size-Loading

    number of load curves..........................       1

    number of nodes for load curve functions.......       0

    number of curves for entities..................       0

    number of concentrated load cards..............       0

    number of pressure load cards..................       2

    number of nonuniform pressure loads-4 nodes....       0

    number of nonuniform pressure loads-6 nodes....       0

    number of nonuniform pressure loads-8 nodes....       0

    number of generalized body force sets..........       0

    number of beam pressure card definitions.......       0

    number of detonation points....................       0

    number of zones for momentum deposition........       0

    number of points in density vs. depth curve....       0

    number of outflow boundary segments............       0

    number of load curve feedback sets.............       0

    number of pressure load sets with masks........       0

    number of spray systems .......................       0

    number of initial stress by cross-sections sets       0

    number of pressure load sets...................       0

    number of ground motion definitions............       0

    number of ground motions specified at nodes....       0

    number of ground motions specified at points...       0

    number of ground motions specified in bin file.       0

    number of segsets with specified ground motion.       0

    number of soil-structure interfaces for output.       0

    number of aero-acoustic load cards.............       0

    number of delayed curve........................       0

    number of pid controller.......................       0


    CONTROL CARD 4. Model Size-Constraints and Contact

    number of rigid wall definitions...............       0

    number of number of contact definitions........       0

    number of number of guided cable contacts......       0

    number of shell-solid interfaces...............       0

    number of tie-breaking slide lines.............       0

    number of blocks of tied nodes with fracture ..       0

    number of tied nodal pairs for linking.........       0

    number of constraint cards.....................       0

    number of linear constraint equations..........       0

    number of 1d slidelines........................       0

    number of adaptive constraints.................       0

    number of ALE smoothing constraints............       0

    number of 2d slidelines........................       0

    number of 2d automatic contacts................       0

    number of part IDs for interior contact........       0

    number of beam release sets....................       0

    max. number of nodes in any beam release set...       0


    CONTROL CARD 5. Model Size-Rigid Body Parameters

    number of rigid body constraint sets...........       0

    number of rigid body merge cards...............       0

    number of joint constraints....................       0

    number of joint failure definitions............       0

    number of joint user force definitions.........       0

    number of extra node blocks....................       0

    number of rigid body inertia definitions.......       0

    number of geometric contact entities...........       0

    number of joint stiffness definitions..........       0

    number of rigid body stoppers..................       0

    joint formulation for rigid bodies.............       0
          eq.0:  penalty                                 
          eq.1:  lagrange multiplier                     

    generalized stiffness angle update ............       3
          eq.0:  incremental formulation                 
          eq.1:  total formulation                       

    number of flexible bodies......................       0
          lt.0:  stress recovery active                  

    number of relative damping definitions.........       0

    flag for reading rigid surface contact input...       0
          eq.0:  no rigid surface contact                 
          eq.1:  read rigid surface input                

    number of Hybrid III dummies ..................       0

    number of Hybrid III joint modifications ......       0

    number of interpolation constraints ...........       0

    flag for metalforming fast rigid bodies........       0
          eq.0:  full rigid body treatment               
          eq.1:  fast rigid body treatment               

    number of prescribed rigid body orientations          0


    CONTROL CARD 6. Model Size-Discrete Elements & Seat Belts

    number of spring-damper material types.........       0

    number of local coordinate systems.............       0

    number of discrete springs and dampers.........       0

    number of lumped masses........................       0

    number of parts with added mass................       0

    number of nodes with mass matrix...............       0

    number of seat belt materials..................       0

    number of seat belt elements...................       0

    number of 2d seat belt elements................       0

    number of slip rings...........................       0

    number of retractors...........................       0

    number of sensors..............................       0

    number of pretensioners........................       0

    number of accelerometers.......................       0

    number of discrete rotary inertias.............       0

    number of SPH particles........................       0

    number of groups of SPH particles..............       0


    CONTROL CARD 7. Model Size-Output Control

    number of cross section definitions............       0

    number of nodal groups for resultant forces....       0

    number of interface segments for linking.......       0

    max. number of segments defining rigid wall....       0

    number of power spectrum density databases.....       0


    CONTROL CARD 8. Computation Options-Termination

    termination time...............................    0.5000E-01

    termination cycle..............................       0

    reduction factor for minimum time step (TSMIN).    0.0000E+00

    percent change in energy ratio for termination.    0.0000E+00

    percent change in total mass for termination...    0.1000E+09

    number of nodes for displacement termination...       0

    number of rigid bodies for disp. termination...       0

    number of conditions for contact termination...       0

    number of conditions for ldcurve termination...       0

    ID of sensor_switch  for sensor  termination... 0


    CONTROL CARD 8a. Computation Options-Start      

    start time.....................................    0.0000E+00


    CONTROL CARD 9. Computation Options-Time Step Size 

    initial time step size.........................    0.0000E+00

    time step scale factor.........................    0.9000E+00

    time step size calculation for 4-node shells...       0
          eq.0:  based on longest element side          
          eq.1:  based on longest element diagonal      
          eq.2:  based on bar wave speed max side       
          eq.3:  based on optimal time step size        
                 estimator                              

    shell element minimum time step assignment.....    0.0000E+00

    time step size for mass scaled solution, dt2ms.    0.0000E+00
          lt.0:  minimum time step size permitted       

    load curve number for maximum timestep.........       0

    erosion flag for solid and thick shells........       0
          eq.0:  no                                      
          eq.1:  yes                                     

    option part set ID for eroding solids.......... 0
          eq.0:  all solids are checked if eros_flag=1   
          gt.0:  solids within part set are checked      

    limit mass scaling to the first time step......       0
          eq.0:  no                                      
          eq.1:  yes                                     

    scale factor on initial dt to determine dt2ms..    0.0000E+00

    load curve ID for mass scaling ................ 0

    flag for selective mass scaling................       0
          eq.0:  off                                     
          eq.1:  on                                      
          eq.2:  on for part subset                      

    consistent constraint logical switch...........       F

    flag for part set for erosion .................       0
          eq.0:  no                                      
          eq.1:  yes                                     

    flag for accounting for rotations in sms.......    0.0000E+00
          eq.0.:  off (default)                           
          gt.0.:  on                                      
    implicit_explicit_hybrid part set..............       0



    CONTROL CARD 10. Computation Options-Loading

    x-ground acceleration..........................       0
          eq.0:  no                                      
          eq.1:  yes                                     

    y-ground acceleration..........................       0
          eq.0:  no                                      
          eq.1:  yes                                     

    z-ground acceleration..........................       0
          eq.0:  no                                      
          eq.1:  yes                                     

    x-angular velocity.............................       0
          eq.0:  no                                      
          eq.1:  yes                                     

    y-angular velocity.............................       0
          eq.0:  no                                      
          eq.1:  yes                                     

    z-angular velocity.............................       0
          eq.0:  no                                      
          eq.1:  yes                                     

    number of materials receiving body forces......       0
          eq.0:  all                                     
          eq.n:  subset of n materials                   

    flag for user defined loading subroutine.......       0
          lt.0:  magnitude=# of input constants          
          eq.0:  no                                      
          eq.1:  yes, but no additional input            

    explosive initiation option....................       0
          eq.0:  lighting times based on distance        
          eq.1:  lighting times include geometric        
                 effects for wave shapers, etc.          

    sub-sea structural analysis option.............       0
          eq.0:  off                                     
          eq.1:  on with 1 point integration             
          eq.4:  on with 4 point integration             
    contact pressure calculation option............       0
          eq.0:  off (default)                           
          eq.1:  on                                      
    # of user defined loading set..................       0


    CONTROL CARD 11. Computation Options-Input Control

    initialization of velocities...................       0
          eq.0: velocities are initialized to zero       
          eq.1: initial velocities are read in           
          eq.2: all velocities have same input value     
          eq.3: as 2 but exempted nodes are defined      
          eq.4: box option                               
          eq.5: generation with arbitrary numbering      
          eq.6: rotational and translational via IDs     
          eq.7: option 6 but applied during calculation  

    time to apply initial velocites (option 7).....    0.0000E+00

    arbitrary node and element numbering flag .....       1

    constitute, eqs-of-state, cross-section option.       0
          eq.0:  off                                     
          eq.1:  separate input is required for each     

    specified nodal coordinate format..............    e20.0

    flag for thermodynamic control volume input....       0

    overpressure option (eq.0 no,  eq.1 yes).......       0

    number of part (de) activation sensors.........       0

    number of rigid body initial velocity sets.....       0

    jacobian tolerance for type 16 tetrahedron.....    0.0000E+00

    flag to check for NaN in force/moment arrays...       0

    load curve accuracy flag.......................       0

    cycles between evaluation of curve functions...       1


    CONTROL CARD 12. Computation Options-Elements  

    warped shell angle in deg. for error message...    0.2000E+02

    iterative plane stress plasticity for shells...       1
          eq.1:  vectorized with three iterates         
          eq.2:  nonvectorized iterations as needed     
          eq.3:  noniterative radial return             

    Calculation option for F for solid elements....       0
          eq.0:  default, explicit=1, implicit=2        
          eq.1:  integrate incrementally                
          eq.2:  compute directly                       

    flag for automatic sorting ....................       0
          eq. 1:  on for triangular shells              
          eq.11:  on for triangular shells and solids   
          eq.10:  on for solids (tets and pentas)       

    formulation for sorted degenerate tet/pent.....       0
          eq. 0:  no sorting required(default)           
          eq. 1:  type 10 tet & type 15 pent             
          eq. 2:  type 10 tet, 1pt pent to type 15 pent, 
                  fully intg pent to type 115 pent       
          eq. 3:  same as 1 & switch elem in messag file 
          eq. 4:  same as 2 & switch elem in messag file 

    formulation for sorted trianglar shells .......       0
          eq. 0:  no sorting required(default)           
          eq. 1:  C0 triangle, type  4                   
          eq. 2:  DKT triangle type 17                   

    hughes-liu normal computation options..........      -1
          eq.-2: unique nodal fibers                    
          eq.-1: compute normals each cycle
          eq.0 : default set to -1     
          eq.1 : compute on restart
          eq.n : compute on restart + each nth cycle     

    consistent tangent for type 13 solid...........       0
          eq.0 : no, recommended for nonlinear implicit 
          eq.1 : yes, may improve linear response       

    thickness modification for membrane strains....       0
          eq.0:  no                                     
          eq.1:  4-node shell only                      
          eq.2:  8-node thick shell types 1 & 2         
          eq.3:  update both 4 & 8 node thickness       
          eq.4:  same as option 1 but the elastic       
                 strains are neglected                  

    shell part set ID (pids) for thickness update.  0
          lt.0: exclude pids if update option is active  
          eq.0: include  all if update option is active  
          gt.0: include pids if update option is active  

    shell part set ID where type 4 update applies   0

    shell formulation basis........................ 2
          eq.   1: hughes-liu                            
          eq.   2: belytschko-tsay                       
          eq.   3: bciz                                  
          eq.   4: c0-triangular element                 
          eq.   5: membrane element                      
          eq.   6: s/r hughes-liu                        
          eq.   7: s/r co-rotational hughes-liu          
          eq.   8: belytschko-leviathan shell            
          eq.   9: fully integrated membrane             
          eq.  10: belytschko-wong-chiang                
          eq.  11: fast hughes-liu                       
          eq.  12: 2d plane stress                       
          eq.  13: 2d plane strain                       
          eq.  14: 2d axisymmetric  (area wgt)           
          eq.  15: 2d axisymmetric  (volume wgt)         
          eq.  16: fully integrated element              
          eq.  17: dkt element                           
          eq.  18: dkq-dkt linear element                
          eq.  20: assumed strain linear element         
          eq.  21: assumed strain linear element(5DOF)   
          eq.  22: linear shear panel element(3DOF)      
          eq.  23: 8-node quadratic quadrilateral shell  
          eq.  24: 6-node quadratic triangular shell     
          eq.  25: belytschko-tsay with                  
                   thickness stretch                     
          eq.  26: fully integrated element with         
                   thickness stretch                     
          eq.  27: c0-triangular element with            
                   thickness stretch                     
          eq.  29: cohesive element                      
          eq.  31: 2-d 1-pt. eulerian n-s                
          eq.  32: 2-d 4-pt. eulerian n-s                
          eq.  33: 2-d cvfem eulerian n-s                
          eq.  41: meshfree shell local projection       
          eq.  42: meshfree shell global projection      
          eq.  43: meshfree plane strain                 
          eq.  44: meshfree axisymmetric solid           
          eq.  46: cohesive element                      
          eq.  47: cohesive with shell offsets           
          eq.  98: interpolation shell element           
          eq.  99: elastic vibration element             
          eq. 201: isogeometric nurbs element            
          ge.1000: user defined (generalized) shell      

    # of user specified beam integration rules.....       0
    max number of integration points reqd (beams) .       0
    # of user specified shell integration rules....       0
    max number of integration points reqd (shells).       0
    warping stiffness for Belytschko-Tsay shells...       2
          eq.1:  Belytschko-Wong-Chiang modification    
          eq.2:  original Belytschko-Tsay               

    projection method for warping stiffness........       0
[...]
 Iteration:   1     *|du|/|u| =  5.3787731E-03     *Ei/E0 =  1.2676379E-01
 DIVERGENCE (increasing translational residual norm) detected:
   current norm   1.039E+01 exceeds prior maximum   6.754E+00

 automatically REFORMING stiffness matrix...
 Iteration:   2     *|du|/|u| =  6.0934075E-04     *Ei/E0 =  3.2654703E-03

 Equilibrium iterations summary step     87 t= 4.3500E-02      11/21/19 09:30:48
    Number of iterations to converge         =           2
    Number of stiffness reformations         =           1
    Number of right hand side evaluations    =           4

 Convergence detected as a combination of
     1. Ratio of euclidian displacement translational norms          
        Value =   6.0934E-04 vs Tolerance =   1.0000E-03
     2. Ratio of euclidian energy       translational norms          
        Value =   3.2655E-03 vs Tolerance =   1.0000E-02
     565 t 4.3500E-02 dt 5.00E-04 write d3plot file            11/21/19 09:30:48

 BEGIN implicit statics  step     88 t= 4.4000E-02             11/21/19 09:30:48
 ============================================================
                time =  4.40000E-02
   current step size =  5.00000E-04
 Iteration:   1     *|du|/|u| =  5.3410700E-03     *Ei/E0 =  1.2961909E-01
 DIVERGENCE (increasing translational residual norm) detected:
   current norm   1.271E+01 exceeds prior maximum   6.928E+00

 automatically REFORMING stiffness matrix...
 Iteration:   2     *|du|/|u| =  7.0555532E-04     *Ei/E0 =  5.7426632E-03

 Equilibrium iterations summary step     88 t= 4.4000E-02      11/21/19 09:30:49
    Number of iterations to converge         =           2
    Number of stiffness reformations         =           1
    Number of right hand side evaluations    =           4

 Convergence detected as a combination of
     1. Ratio of euclidian displacement translational norms          
        Value =   7.0556E-04 vs Tolerance =   1.0000E-03
     2. Ratio of euclidian energy       translational norms          
        Value =   5.7427E-03 vs Tolerance =   1.0000E-02
     570 t 4.4000E-02 dt 5.00E-04 write d3plot file            11/21/19 09:30:49

 BEGIN implicit statics  step     89 t= 4.4500E-02             11/21/19 09:30:49
 ============================================================
                time =  4.45000E-02
   current step size =  5.00000E-04
 Iteration:   1     *|du|/|u| =  5.4014803E-03     *Ei/E0 =  1.3735112E-01
 DIVERGENCE (increasing translational residual norm) detected:
   current norm   1.027E+01 exceeds prior maximum   7.167E+00

 automatically REFORMING stiffness matrix...
 Iteration:   2     *|du|/|u| =  7.0117257E-04     *Ei/E0 =  4.4093580E-03

 Equilibrium iterations summary step     89 t= 4.4500E-02      11/21/19 09:30:50
    Number of iterations to converge         =           2
    Number of stiffness reformations         =           1
    Number of right hand side evaluations    =           4

 Convergence detected as a combination of
     1. Ratio of euclidian displacement translational norms          
        Value =   7.0117E-04 vs Tolerance =   1.0000E-03
     2. Ratio of euclidian energy       translational norms          
        Value =   4.4094E-03 vs Tolerance =   1.0000E-02
     575 t 4.4500E-02 dt 5.00E-04 write d3plot file            11/21/19 09:30:50

 BEGIN implicit statics  step     90 t= 4.5000E-02             11/21/19 09:30:50
 ============================================================
                time =  4.50000E-02
   current step size =  5.00000E-04
 Iteration:   1     *|du|/|u| =  5.3736546E-03     *Ei/E0 =  1.3929163E-01
 DIVERGENCE (increasing translational residual norm) detected:
   current norm   1.000E+01 exceeds prior maximum   7.055E+00

 automatically REFORMING stiffness matrix...
 Iteration:   2     *|du|/|u| =  7.2191303E-04     *Ei/E0 =  4.6920474E-03

 Equilibrium iterations summary step     90 t= 4.5000E-02      11/21/19 09:30:51
    Number of iterations to converge         =           2
    Number of stiffness reformations         =           1
    Number of right hand side evaluations    =           4

 Convergence detected as a combination of
     1. Ratio of euclidian displacement translational norms          
        Value =   7.2191E-04 vs Tolerance =   1.0000E-03
     2. Ratio of euclidian energy       translational norms          
        Value =   4.6920E-03 vs Tolerance =   1.0000E-02
     580 t 4.5000E-02 dt 5.00E-04 write d3plot file            11/21/19 09:30:51

 BEGIN implicit statics  step     91 t= 4.5500E-02             11/21/19 09:30:51
 ============================================================
                time =  4.55000E-02
   current step size =  5.00000E-04
 Iteration:   1     *|du|/|u| =  5.3601222E-03     *Ei/E0 =  1.4309209E-01
 DIVERGENCE (increasing translational residual norm) detected:
   current norm   1.148E+01 exceeds prior maximum   7.133E+00

 automatically REFORMING stiffness matrix...
 Iteration:   2     *|du|/|u| =  8.0063184E-04     *Ei/E0 =  6.6002346E-03

 Equilibrium iterations summary step     91 t= 4.5500E-02      11/21/19 09:30:52
    Number of iterations to converge         =           2
    Number of stiffness reformations         =           1
    Number of right hand side evaluations    =           4

 Convergence detected as a combination of
     1. Ratio of euclidian displacement translational norms          
        Value =   8.0063E-04 vs Tolerance =   1.0000E-03
     2. Ratio of euclidian energy       translational norms          
        Value =   6.6002E-03 vs Tolerance =   1.0000E-02
     585 t 4.5500E-02 dt 5.00E-04 write d3plot file            11/21/19 09:30:53

 BEGIN implicit statics  step     92 t= 4.6000E-02             11/21/19 09:30:53
 ============================================================
                time =  4.60000E-02
   current step size =  5.00000E-04
 Iteration:   1     *|du|/|u| =  5.4143161E-03     *Ei/E0 =  1.5295140E-01
 DIVERGENCE (increasing translational residual norm) detected:
   current norm   1.307E+01 exceeds prior maximum   7.352E+00

 automatically REFORMING stiffness matrix...
 Iteration:   2     *|du|/|u| =  1.0165931E-03     *Ei/E0 =  1.0482264E-02
 Iteration:   3     *|du|/|u| =  3.2353662E-04     *Ei/E0 =  1.4298139E-03

 Equilibrium iterations summary step     92 t= 4.6000E-02      11/21/19 09:30:54
    Number of iterations to converge         =           3
    Number of stiffness reformations         =           1
    Number of right hand side evaluations    =           5

 Convergence detected as a combination of
     1. Ratio of euclidian displacement translational norms          
        Value =   3.2354E-04 vs Tolerance =   1.0000E-03
     2. Ratio of euclidian energy       translational norms          
        Value =   1.4298E-03 vs Tolerance =   1.0000E-02
     591 t 4.6000E-02 dt 5.00E-04 write d3plot file            11/21/19 09:30:54

 BEGIN implicit statics  step     93 t= 4.6500E-02             11/21/19 09:30:54
 ============================================================
                time =  4.65000E-02
   current step size =  5.00000E-04
 Iteration:   1     *|du|/|u| =  5.4088007E-03     *Ei/E0 =  1.5098244E-01
 DIVERGENCE (increasing translational residual norm) detected:
   current norm   1.078E+01 exceeds prior maximum   6.038E+00

 automatically REFORMING stiffness matrix...
 Iteration:   2     *|du|/|u| =  9.3510910E-04     *Ei/E0 =  7.4821715E-03

 Equilibrium iterations summary step     93 t= 4.6500E-02      11/21/19 09:30:55
    Number of iterations to converge         =           2
    Number of stiffness reformations         =           1
    Number of right hand side evaluations    =           4

 Convergence detected as a combination of
     1. Ratio of euclidian displacement translational norms          
        Value =   9.3511E-04 vs Tolerance =   1.0000E-03
     2. Ratio of euclidian energy       translational norms          
        Value =   7.4822E-03 vs Tolerance =   1.0000E-02
     596 t 4.6500E-02 dt 5.00E-04 write d3plot file            11/21/19 09:30:55

 BEGIN implicit statics  step     94 t= 4.7000E-02             11/21/19 09:30:55
 ============================================================
                time =  4.70000E-02
   current step size =  5.00000E-04
 Iteration:   1     *|du|/|u| =  5.6744120E-03     *Ei/E0 =  1.7345574E-01
 DIVERGENCE (increasing translational residual norm) detected:
   current norm   1.491E+01 exceeds prior maximum   7.413E+00

 automatically REFORMING stiffness matrix...
 Iteration:   2     *|du|/|u| =  1.2937339E-03     *Ei/E0 =  1.8576619E-02
 Iteration:   3     *|du|/|u| =  8.2831373E-04     *Ei/E0 =  7.1528872E-03

 Equilibrium iterations summary step     94 t= 4.7000E-02      11/21/19 09:30:56
    Number of iterations to converge         =           3
    Number of stiffness reformations         =           1
    Number of right hand side evaluations    =           5

 Convergence detected as a combination of
     1. Ratio of euclidian displacement translational norms          
        Value =   8.2831E-04 vs Tolerance =   1.0000E-03
     2. Ratio of euclidian energy       translational norms          
        Value =   7.1529E-03 vs Tolerance =   1.0000E-02
     602 t 4.7000E-02 dt 5.00E-04 write d3plot file            11/21/19 09:30:57

 BEGIN implicit statics  step     95 t= 4.7500E-02             11/21/19 09:30:57
 ============================================================
                time =  4.75000E-02
   current step size =  5.00000E-04
 Iteration:   1     *|du|/|u| =  5.8624039E-03     *Ei/E0 =  1.8622364E-01
 DIVERGENCE (increasing translational residual norm) detected:
   current norm   1.459E+01 exceeds prior maximum   6.195E+00

 automatically REFORMING stiffness matrix...
 Iteration:   2     *|du|/|u| =  1.5961704E-03     *Ei/E0 =  2.1633634E-02
 Iteration:   3     *|du|/|u| =  1.0217236E-03     *Ei/E0 =  7.4521650E-03
 Iteration:   4     *|du|/|u| =  1.4024222E-04     *Ei/E0 =  4.0122348E-04

 Equilibrium iterations summary step     95 t= 4.7500E-02      11/21/19 09:30:58
    Number of iterations to converge         =           4
    Number of stiffness reformations         =           1
    Number of right hand side evaluations    =           6

 Convergence detected as a combination of
     1. Ratio of euclidian displacement translational norms          
        Value =   1.4024E-04 vs Tolerance =   1.0000E-03
     2. Ratio of euclidian energy       translational norms          
        Value =   4.0122E-04 vs Tolerance =   1.0000E-02
     609 t 4.7500E-02 dt 5.00E-04 write d3plot file            11/21/19 09:30:58

 BEGIN implicit statics  step     96 t= 4.8000E-02             11/21/19 09:30:58
 ============================================================
                time =  4.80000E-02
   current step size =  5.00000E-04
 Iteration:   1     *|du|/|u| =  6.3278492E-03     *Ei/E0 =  2.1152841E-01
 DIVERGENCE (increasing translational residual norm) detected:
   current norm   1.496E+01 exceeds prior maximum   5.730E+00

 automatically REFORMING stiffness matrix...
 Iteration:   2     *|du|/|u| =  1.9902468E-03     *Ei/E0 =  2.8988744E-02
 Iteration:   3     *|du|/|u| =  1.5665299E-03     *Ei/E0 =  1.2891811E-02
 Iteration:   4     *|du|/|u| =  2.3866820E-04     *Ei/E0 =  8.3359595E-04

 Equilibrium iterations summary step     96 t= 4.8000E-02      11/21/19 09:30:59
    Number of iterations to converge         =           4
    Number of stiffness reformations         =           1
    Number of right hand side evaluations    =           6

 Convergence detected as a combination of
     1. Ratio of euclidian displacement translational norms          
        Value =   2.3867E-04 vs Tolerance =   1.0000E-03
     2. Ratio of euclidian energy       translational norms          
        Value =   8.3360E-04 vs Tolerance =   1.0000E-02
     616 t 4.8000E-02 dt 5.00E-04 write d3plot file            11/21/19 09:31:00

 BEGIN implicit statics  step     97 t= 4.8500E-02             11/21/19 09:31:00
 ============================================================
                time =  4.85000E-02
   current step size =  5.00000E-04
 Iteration:   1     *|du|/|u| =  6.8128420E-03     *Ei/E0 =  2.4061561E-01
 DIVERGENCE (increasing translational residual norm) detected:
   current norm   1.434E+01 exceeds prior maximum   5.727E+00

 automatically REFORMING stiffness matrix...
 Iteration:   2     *|du|/|u| =  2.5592145E-03     *Ei/E0 =  4.3389860E-02
 Iteration:   3     *|du|/|u| =  2.4985004E-03     *Ei/E0 =  2.5118814E-02
 Iteration:   4     *|du|/|u| =  3.9014933E-04     *Ei/E0 =  1.7290968E-03

 Equilibrium iterations summary step     97 t= 4.8500E-02      11/21/19 09:31:01
    Number of iterations to converge         =           4
    Number of stiffness reformations         =           1
    Number of right hand side evaluations    =           6

 Convergence detected as a combination of
     1. Ratio of euclidian displacement translational norms          
        Value =   3.9015E-04 vs Tolerance =   1.0000E-03
     2. Ratio of euclidian energy       translational norms          
        Value =   1.7291E-03 vs Tolerance =   1.0000E-02
     623 t 4.8500E-02 dt 5.00E-04 write d3plot file            11/21/19 09:31:01

 BEGIN implicit statics  step     98 t= 4.9000E-02             11/21/19 09:31:01
 ============================================================
                time =  4.90000E-02
   current step size =  5.00000E-04
 Iteration:   1     *|du|/|u| =  7.2380672E-03     *Ei/E0 =  2.6759720E-01
 DIVERGENCE (increasing translational residual norm) detected:
   current norm   1.200E+01 exceeds prior maximum   5.811E+00

 automatically REFORMING stiffness matrix...
 Iteration:   2     *|du|/|u| =  3.1527852E-03     *Ei/E0 =  6.0764921E-02
 Iteration:   3     *|du|/|u| =  3.6641061E-03     *Ei/E0 =  4.3155826E-02
 Iteration:   4     *|du|/|u| =  4.9704208E-04     *Ei/E0 =  2.5748501E-03

 Equilibrium iterations summary step     98 t= 4.9000E-02      11/21/19 09:31:02
    Number of iterations to converge         =           4
    Number of stiffness reformations         =           1
    Number of right hand side evaluations    =           6

 Convergence detected as a combination of
     1. Ratio of euclidian displacement translational norms          
        Value =   4.9704E-04 vs Tolerance =   1.0000E-03
     2. Ratio of euclidian energy       translational norms          
        Value =   2.5749E-03 vs Tolerance =   1.0000E-02
     630 t 4.9000E-02 dt 5.00E-04 write d3plot file            11/21/19 09:31:03

 BEGIN implicit statics  step     99 t= 4.9500E-02             11/21/19 09:31:03
 ============================================================
                time =  4.95000E-02
   current step size =  5.00000E-04
 Iteration:   1     *|du|/|u| =  7.4828079E-03     *Ei/E0 =  2.8681897E-01
 DIVERGENCE (increasing translational residual norm) detected:
   current norm   9.125E+00 exceeds prior maximum   5.980E+00

 automatically REFORMING stiffness matrix...
 Iteration:   2     *|du|/|u| =  3.6589676E-03     *Ei/E0 =  7.8253202E-02
 Iteration:   3     *|du|/|u| =  4.8902935E-03     *Ei/E0 =  6.5375955E-02
 Iteration:   4     *|du|/|u| =  5.2782561E-04     *Ei/E0 =  2.9722180E-03

 Equilibrium iterations summary step     99 t= 4.9500E-02      11/21/19 09:31:04
    Number of iterations to converge         =           4
    Number of stiffness reformations         =           1
    Number of right hand side evaluations    =           6

 Convergence detected as a combination of
     1. Ratio of euclidian displacement translational norms          
        Value =   5.2783E-04 vs Tolerance =   1.0000E-03
     2. Ratio of euclidian energy       translational norms          
        Value =   2.9722E-03 vs Tolerance =   1.0000E-02
     637 t 4.9500E-02 dt 5.00E-04 write d3plot file            11/21/19 09:31:04

 BEGIN implicit statics  step    100 t= 5.0000E-02             11/21/19 09:31:04
 ============================================================
                time =  5.00000E-02
   current step size =  5.00000E-04
 Iteration:   1     *|du|/|u| =  7.5872277E-03     *Ei/E0 =  2.9992634E-01
 DIVERGENCE (increasing translational residual norm) detected:
   current norm   7.078E+00 exceeds prior maximum   6.135E+00

 automatically REFORMING stiffness matrix...
 Iteration:   2     *|du|/|u| =  4.0451461E-03     *Ei/E0 =  9.4039778E-02
 Iteration:   3     *|du|/|u| =  6.0572745E-03     *Ei/E0 =  8.9909196E-02
 Iteration:   4     *|du|/|u| =  5.1511869E-04     *Ei/E0 =  3.0247155E-03

 Equilibrium iterations summary step    100 t= 5.0000E-02      11/21/19 09:31:06
    Number of iterations to converge         =           4
    Number of stiffness reformations         =           1
    Number of right hand side evaluations    =           6

 Convergence detected as a combination of
     1. Ratio of euclidian displacement translational norms          
        Value =   5.1512E-04 vs Tolerance =   1.0000E-03
     2. Ratio of euclidian energy       translational norms          
        Value =   3.0247E-03 vs Tolerance =   1.0000E-02
     644 t 5.0000E-02 dt 5.00E-04 write d3plot file            11/21/19 09:31:06
 
 *** termination time reached ***
     644 t 5.0000E-02 dt 5.00E-04 write d3dump01 file          11/21/19 09:31:06

 N o r m a l    t e r m i n a t i o n                          11/21/19 09:31:06
 

 T i m i n g   i n f o r m a t i o n
                        CPU(seconds)   %CPU  Clock(seconds) %Clock
  ----------------------------------------------------------------
  Keyword Processing ... 3.1337E-01    0.35     3.2290E-01    0.30
    KW Reading ......... 5.3617E-02    0.06     5.0660E-02    0.05
    KW Writing ......... 2.8514E-03    0.00     4.9150E-02    0.05
  Initialization ....... 7.1683E-01    0.79     1.2828E+00    1.20
    Init Proc Phase 1 .. 3.8413E-01    0.42     6.1810E-01    0.58
    Init Proc Phase 2 .. 5.6204E-02    0.06     2.9009E-01    0.27
  Init solver .......... 3.9065E-02    0.04     3.8865E-02    0.04
  Element processing ... 2.9691E-01    0.33     1.5705E-01    0.15
    Shells ............. 2.0143E-01    0.22     1.3031E-01    0.12
  Binary databases ..... 9.1166E-02    0.10     6.7102E-02    0.06
  ASCII database ....... 1.8149E-02    0.02     8.6070E-03    0.01
  Contact algorithm .... 7.6531E-03    0.01     3.8560E-03    0.00
  Rigid Bodies ......... 7.0265E-03    0.01     2.8390E-03    0.00
  Implicit ............. 6.5554E+01   72.44     8.1125E+01   75.63
  Implicit Lin. Alg. ... 2.2838E+01   25.24     2.3703E+01   22.10
    Imp. LA Mtx Assemb . 3.3030E-01    0.37     2.1683E-01    0.20
    Imp. LA Factor ..... 3.4289E-01    0.38     2.2477E-01    0.21
    Imp. LA Solve ...... 2.2158E+01   24.49     2.3258E+01   21.68
  Time step size ....... 3.0285E-03    0.00     2.8340E-03    0.00
  Group force file ..... 2.2868E-02    0.03     1.8609E-02    0.02
  Others ............... 3.6955E-02    0.04     1.5356E-02    0.01
  Misc. 1 .............. 3.6313E-01    0.40     3.5124E-01    0.33
  Misc. 3 .............. 9.3759E-02    0.10     8.7221E-02    0.08
  Misc. 4 .............. 8.7974E-02    0.10     7.9799E-02    0.07
  ----------------------------------------------------------------
  T o t a l s            9.0490E+01  100.00     1.0727E+02  100.00

 Problem time       =    5.0000E-02
 Problem cycle      =       644
 Total CPU time     =        90 seconds (   0 hours  1 minutes 30 seconds)
 CPU time per zone cycle  =   12628490.753 nanoseconds
 Clock time per zone cycle=   14915614.342 nanoseconds

 Number of CPU's    2
 NLQ used/max     192/  192
 Start time   11/21/2019 09:29:19  
 End time     11/21/2019 09:31:06  
 Elapsed time     107 seconds for     644 cycles using  2 SMP threads
             (      0 hour   1 minute  47 seconds)

 N o r m a l    t e r m i n a t i o n                          11/21/19 09:31:06
