 LS-DYNA keyword deck by LS-PrePost                                      
                         ls-dyna smp.123264 d           date 01/12/2018
