      Date: 11/21/2019      Time: 09:29:19  

     ___________________________________________________
     |                                                 |
     |  Livermore  Software  Technology  Corporation   |
     |                                                 |
     |  7374 Las Positas Road                          |
     |  Livermore, CA 94551                            |
     |  Tel: (925) 449-2500  Fax: (925) 449-2507       |
     |  www.lstc.com                                   |
     |_________________________________________________|
     |                                                 |
     |  LS-DYNA, A Program for Nonlinear Dynamic       |
     |  Analysis of Structures in Three Dimensions     |
     |  Version : smp d R10.1.0   Date: 01/12/2018     |
     |  Revision: 123264          Time: 16:34:46       |
     |                                                 |
     |  Features enabled in this version:              |
     |    Shared Memory Parallel                       |
     |    CESE CHEMISTRY EM ICFD STOCHASTIC_PARTICLES  |
     |    FFTW (multi-dimensional FFTW Library)        |
     |    ARPACK (nonsymmetric eigensolver library)    |
     |    Interactive Graphics                         |
     |    ANSYS Database format                        |
     |    ANSYS License (ANSYS160)                     |
     |                                                 |
     |  Licensed to: Stellenbosch University - 1409    |
     |  Issued by  : LSTC_01142019                     |
     |                                                 |
     |  Platform   : Xeon64 System                     |
     |  OS Level   : Linux 2.6.32 ulm                  |
     |  Compiler   : Intel Fortran Compiler 16.0 SSE2  |
     |  Hostname   : naude-HP-Pavilion-17-Notebook-PC  |
     |  Precision  : Double precision (I8R8)           |
     |  SVN Version: 123300                            |
     |                                                 |
     |  Unauthorized use infringes LSTC copyrights     |
     |_________________________________________________|


 Input file: /home/naude/Documents/Masters-Project/Models/LSDyna_Unit_Cell_Corner/Steel_Impli

 The native file format       : 64-bit small endian
 Memory size from command line:    20000000

 ********  notice  ********  notice  ********  notice  ********
 *                                                            *
 * This is the LS-DYNA Finite Element code.                   *
 *                                                            *
 * Neither LSTC nor the authors assume any responsibility for *
 * the validity, accuracy, or applicability of any results    *
 * obtained from this system. Users must verify their own     *
 * results.                                                   *
 *                                                            *
 * LSTC endeavors to make the LS-DYNA code as complete,       *
 * accurate and easy to use as possible.                      *
 * Suggestions and comments are welcomed.  Please report any  *
 * errors encountered in either the documentation or results  *
 * immediately to LSTC through your site focus.               *
 *                                                            *
 * Copyright (C) 1990-2018                                    *
 * by Livermore Software Technology Corp. (LSTC)              *
 * All rights reserved                                        *
 *                                                            *
 ********  notice  ********  notice  ********  notice  ********
 
LSTC Environment Variables:
 
LSTC_LICENSE=network
LSTC_LICENSE_SERVER=license.sun.ac.za
 

 Beginning of keyword reader                                   11/21/19 09:29:19
 expanding   memory to    20000000 d     1901716 beginning of keyword reader
 contracting memory to       21001 d     1901716  
 expanding   memory to       74021 d     1907860  
 expanding   memory to      104021 d     1907860  
 expanding   memory to      164153 d     1907860  
 expanding   memory to      184425 d     1907860  
 expanding   memory to      204957 d     1907860  
 expanding   memory to      226073 d     1907860  
 expanding   memory to      252635 d     1907860  

 Memory required to process keyword     :      252635 
 contracting memory to           1 d     1543518 end of keyword reader

 LS-DYNA will perform a structural only analysis 

 LS-DYNA keyword deck by LS-PrePost                                      
                         ls-dyna smp.123264 d           date 01/12/2018
 expanding   memory to        2382 d     1537377 material, node and element data
 expanding   memory to        2456 d     1537379 mat add general damage 0
 expanding   memory to        2466 d     1537379 material added airbag porosity leakage 
 expanding   memory to        2469 d     1537379 material properties
 expanding   memory to        2473 d     1538499 element data for composite material
 expanding   memory to        2523 d     1538556 gradient of damage data
 expanding   memory to        2616 d     1538842 user control for contact interfaces
 contracting memory to        2597 d     1538842 thermal expansion 0
 expanding   memory to        2621 d     1538842 temp index array for node sorting
 contracting memory to        2597 d     1538870 for boundary cond. vectorization
 expanding   memory to        2608 d     1538918 arbitrary element numbering input
 contracting memory to        2597 d     1538933 thick shell int. pt. strain
 expanding   memory to        2721 d     1538935 spc cards
 expanding   memory to        3304 d     1538993 process element material data
 expanding   memory to        5310 d     1538992 load curve data
 contracting memory to        3747 d     1538993 user_define_loading_set
 expanding   memory to        3961 d     1538993 regularize time history data
 expanding   memory to        3965 d     1538993 *DEFINE_ELEMENT_DEATH
 contracting memory to        3965 d     1538993 rigidwall definitions
 expanding   memory to        4007 d     1538993 pressure b.c.1
 expanding   memory to        4043 d     1538993 pressure b.c. 2
 expanding   memory to        4068 d     1538993 nodal constraint sets
 expanding   memory to        4218 d     1538993 contact interfaces
 expanding   memory to        5266 d     1538993 implicit contact 1
 contracting memory to        5218 d     1539104 contact segment data 1
 expanding   memory to        5338 d     1539104 contact segment data 3
 contracting memory to        4218 d     1590049 contact definition
 expanding   memory to        4421 d     1590049 rigid body
 expanding   memory to        4736 d     1590055 contact friction
 contracting memory to        4736 d     1590055 implicit friction
 expanding   memory to        4751 d     1590055 joints
 contracting memory to        4751 d     1590655 accelerometers
 expanding   memory to        4851 d     1590655 rigid bodies for disp. termination
 contracting memory to        4851 d     1590727 transformation to move nodes
 expanding   memory to        4852 d     1590802 mat add cohesive 0
 expanding   memory to        4854 d     1590802 sensor_control for curve
 expanding   memory to        4855 d     1590802 flexible body 2
 contracting memory to        4855 d     1590802 implicit joints
 expanding   memory to        4858 d     1590802 implicit explicit hybrid dummy
 expanding   memory to        4882 d     1590802 implicit allocation 1
 expanding   memory to        4889 d     1590802 implicit allocation 2
 expanding   memory to        5033 d     1590802 implicit allocation 4
 expanding   memory to        5058 d     1590802 implicit allocation 5
 expanding   memory to       12495 d     1590902 implicit allocation 6

 S t o r a g e   a l l o c a t i o n   

 Memory required to begin solution      :     253K
 Linear Alg dynamically allocated memory:     1495
 Additional dynamically allocated memory:    1591K
                                   Total:    1846K
       1 t 0.0000E+00 dt 5.00E-04 flush i/o buffers            11/21/19 09:29:21
       1 t 0.0000E+00 dt 5.00E-04 write d3plot file            11/21/19 09:29:21

 BEGIN implicit statics  step      1 t= 5.0000E-04             11/21/19 09:29:21
 ============================================================
                time =  5.00000E-04
   current step size =  5.00000E-04
 expanding   memory to       13075 d     1590878 implicit lsolvr allocation 1
 expanding   memory to       13654 d     1592627 implicit matrix storage
 expanding   memory to       35946 d     1592627 linear eqn. solver allocation 2e
 min. memory for in-core stiffness factorization=            0.1 Mw
 expanding   memory to      116815 d     1592627 linear eqn. solver numerical phase 1
 expanding   memory to    20000000 d     1592627 linear eqn. solver numerical phase 2
 Iteration:   1     *|du|/|u| =  1.0000000E+00     *Ei/E0 =  1.0000000E+00
 Iteration:   2     *|du|/|u| =  5.0250723E-04     *Ei/E0 =  1.5855524E-06

 Equilibrium iterations summary step      1 t= 5.0000E-04      11/21/19 09:29:22
    Number of iterations to converge         =           2
    Number of stiffness reformations         =           0
    Number of right hand side evaluations    =           3

 Convergence detected as a combination of
     1. Current  maximum   displacement translational norm           
        Value =   9.3292E-07 vs Tolerance =   1.6971E-04
     2. Ratio of euclidian displacement translational norms          
        Value =   5.0251E-04 vs Tolerance =   1.0000E-03
     3. Ratio of euclidian energy       translational norms          
        Value =   1.5856E-06 vs Tolerance =   1.0000E-02
       6 t 5.0000E-04 dt 5.00E-04 write d3plot file            11/21/19 09:29:22

 BEGIN implicit statics  step      2 t= 1.0000E-03             11/21/19 09:29:22
 ============================================================
                time =  1.00000E-03
   current step size =  5.00000E-04
 Iteration:   1     *|du|/|u| =  4.9986710E-01     *Ei/E0 =  9.9893315E-01
 Iteration:   2     *|du|/|u| =  2.2982582E-04     *Ei/E0 =  1.5007853E-06

 Equilibrium iterations summary step      2 t= 1.0000E-03      11/21/19 09:29:23
    Number of iterations to converge         =           2
    Number of stiffness reformations         =           0
    Number of right hand side evaluations    =           3

 Convergence detected as a combination of
     1. Current  maximum   displacement translational norm           
        Value =   8.5535E-07 vs Tolerance =   1.6971E-04
     2. Ratio of euclidian displacement translational norms          
        Value =   2.2983E-04 vs Tolerance =   1.0000E-03
     3. Ratio of euclidian energy       translational norms          
        Value =   1.5008E-06 vs Tolerance =   1.0000E-02
      10 t 1.0000E-03 dt 5.00E-04 write d3plot file            11/21/19 09:29:23

 BEGIN implicit statics  step      3 t= 1.5000E-03             11/21/19 09:29:23
 ============================================================
                time =  1.50000E-03
   current step size =  5.00000E-04
 Iteration:   1     *|du|/|u| =  3.3309614E-01     *Ei/E0 =  9.9786444E-01
 Iteration:   2     *|du|/|u| =  1.3900637E-04     *Ei/E0 =  1.4272442E-06

 Equilibrium iterations summary step      3 t= 1.5000E-03      11/21/19 09:29:23
    Number of iterations to converge         =           2
    Number of stiffness reformations         =           0
    Number of right hand side evaluations    =           3

 Convergence detected as a combination of
     1. Current  maximum   displacement translational norm           
        Value =   7.7819E-07 vs Tolerance =   1.6971E-04
     2. Ratio of euclidian displacement translational norms          
        Value =   1.3901E-04 vs Tolerance =   1.0000E-03
     3. Ratio of euclidian energy       translational norms          
        Value =   1.4272E-06 vs Tolerance =   1.0000E-02
      14 t 1.5000E-03 dt 5.00E-04 write d3plot file            11/21/19 09:29:23

 BEGIN implicit statics  step      4 t= 2.0000E-03             11/21/19 09:29:23
 ============================================================
                time =  2.00000E-03
   current step size =  5.00000E-04
 Iteration:   1     *|du|/|u| =  2.4969961E-01     *Ei/E0 =  9.9679716E-01
 Iteration:   2     *|du|/|u| =  9.3656920E-05     *Ei/E0 =  1.3648582E-06

 Equilibrium iterations summary step      4 t= 2.0000E-03      11/21/19 09:29:24
    Number of iterations to converge         =           2
    Number of stiffness reformations         =           0
    Number of right hand side evaluations    =           3

 Convergence detected as a combination of
     1. Current  maximum   displacement translational norm           
        Value =   7.0144E-07 vs Tolerance =   1.6971E-04
     2. Ratio of euclidian displacement translational norms          
        Value =   9.3657E-05 vs Tolerance =   1.0000E-03
     3. Ratio of euclidian energy       translational norms          
        Value =   1.3649E-06 vs Tolerance =   1.0000E-02
      18 t 2.0000E-03 dt 5.00E-04 write d3plot file            11/21/19 09:29:24

 BEGIN implicit statics  step      5 t= 2.5000E-03             11/21/19 09:29:24
 ============================================================
                time =  2.50000E-03
   current step size =  5.00000E-04
 Iteration:   1     *|du|/|u| =  1.9965820E-01     *Ei/E0 =  9.9573132E-01
 Iteration:   2     *|du|/|u| =  6.6500391E-05     *Ei/E0 =  1.3135429E-06

 Equilibrium iterations summary step      5 t= 2.5000E-03      11/21/19 09:29:25
    Number of iterations to converge         =           2
    Number of stiffness reformations         =           0
    Number of right hand side evaluations    =           3

 Convergence detected as a combination of
     1. Current  maximum   displacement translational norm           
        Value =   6.2510E-07 vs Tolerance =   1.6971E-04
     2. Ratio of euclidian displacement translational norms          
        Value =   6.6500E-05 vs Tolerance =   1.0000E-03
     3. Ratio of euclidian energy       translational norms          
        Value =   1.3135E-06 vs Tolerance =   1.0000E-02
      22 t 2.5000E-03 dt 5.00E-04 write d3plot file            11/21/19 09:29:25

 BEGIN implicit statics  step      6 t= 3.0000E-03             11/21/19 09:29:25
 ============================================================
                time =  3.00000E-03
   current step size =  5.00000E-04
 Iteration:   1     *|du|/|u| =  1.6629585E-01     *Ei/E0 =  9.9466690E-01
 Iteration:   2     *|du|/|u| =  4.8446822E-05     *Ei/E0 =  1.2732144E-06

 Equilibrium iterations summary step      6 t= 3.0000E-03      11/21/19 09:29:26
    Number of iterations to converge         =           2
    Number of stiffness reformations         =           0
    Number of right hand side evaluations    =           3

 Convergence detected as a combination of
     1. Current  maximum   displacement translational norm           
        Value =   5.4916E-07 vs Tolerance =   1.6971E-04
     2. Ratio of euclidian displacement translational norms          
        Value =   4.8447E-05 vs Tolerance =   1.0000E-03
     3. Ratio of euclidian energy       translational norms          
        Value =   1.2732E-06 vs Tolerance =   1.0000E-02
      26 t 3.0000E-03 dt 5.00E-04 write d3plot file            11/21/19 09:29:26

 BEGIN implicit statics  step      7 t= 3.5000E-03             11/21/19 09:29:26
 ============================================================
                time =  3.50000E-03
   current step size =  5.00000E-04
 Iteration:   1     *|du|/|u| =  1.4246493E-01     *Ei/E0 =  9.9360392E-01
 Iteration:   2     *|du|/|u| =  3.5604231E-05     *Ei/E0 =  1.2437896E-06

 Equilibrium iterations summary step      7 t= 3.5000E-03      11/21/19 09:29:26
    Number of iterations to converge         =           2
    Number of stiffness reformations         =           0
    Number of right hand side evaluations    =           3

 Convergence detected as a combination of
     1. Current  maximum   displacement translational norm           
        Value =   4.7364E-07 vs Tolerance =   1.6971E-04
     2. Ratio of euclidian displacement translational norms          
        Value =   3.5604E-05 vs Tolerance =   1.0000E-03
     3. Ratio of euclidian energy       translational norms          
        Value =   1.2438E-06 vs Tolerance =   1.0000E-02
      30 t 3.5000E-03 dt 5.00E-04 write d3plot file            11/21/19 09:29:27

 BEGIN implicit statics  step      8 t= 4.0000E-03             11/21/19 09:29:27
 ============================================================
                time =  4.00000E-03
   current step size =  5.00000E-04
 Iteration:   1     *|du|/|u| =  1.2459140E-01     *Ei/E0 =  9.9254237E-01
 Iteration:   2     *|du|/|u| =  2.6032999E-05     *Ei/E0 =  1.2251857E-06

 Equilibrium iterations summary step      8 t= 4.0000E-03      11/21/19 09:29:27
    Number of iterations to converge         =           2
    Number of stiffness reformations         =           0
    Number of right hand side evaluations    =           3

 Convergence detected as a combination of
     1. Current  maximum   displacement translational norm           
        Value =   3.9852E-07 vs Tolerance =   1.6971E-04
     2. Ratio of euclidian displacement translational norms          
        Value =   2.6033E-05 vs Tolerance =   1.0000E-03
     3. Ratio of euclidian energy       translational norms          
        Value =   1.2252E-06 vs Tolerance =   1.0000E-02
      34 t 4.0000E-03 dt 5.00E-04 write d3plot file            11/21/19 09:29:27

 BEGIN implicit statics  step      9 t= 4.5000E-03             11/21/19 09:29:27
 ============================================================
                time =  4.50000E-03
   current step size =  5.00000E-04
 Iteration:   1     *|du|/|u| =  1.1068958E-01     *Ei/E0 =  9.9148225E-01
 Iteration:   2     *|du|/|u| =  1.8667867E-05     *Ei/E0 =  1.2173207E-06

 Equilibrium iterations summary step      9 t= 4.5000E-03      11/21/19 09:29:28
    Number of iterations to converge         =           2
    Number of stiffness reformations         =           0
    Number of right hand side evaluations    =           3

 Convergence detected as a combination of
     1. Current  maximum   displacement translational norm           
        Value =   3.2381E-07 vs Tolerance =   1.6971E-04
     2. Ratio of euclidian displacement translational norms          
        Value =   1.8668E-05 vs Tolerance =   1.0000E-03
     3. Ratio of euclidian energy       translational norms          
        Value =   1.2173E-06 vs Tolerance =   1.0000E-02
      38 t 4.5000E-03 dt 5.00E-04 write d3plot file            11/21/19 09:29:28

 BEGIN implicit statics  step     10 t= 5.0000E-03             11/21/19 09:29:28
 ============================================================
                time =  5.00000E-03
   current step size =  5.00000E-04
 Iteration:   1     *|du|/|u| =  9.9568017E-02     *Ei/E0 =  9.9042356E-01
 Iteration:   2     *|du|/|u| =  1.2897206E-05     *Ei/E0 =  1.2201130E-06

 Equilibrium iterations summary step     10 t= 5.0000E-03      11/21/19 09:29:29
    Number of iterations to converge         =           2
    Number of stiffness reformations         =           0
    Number of right hand side evaluations    =           3

 Convergence detected as a combination of
     1. Current  maximum   displacement translational norm           
        Value =   2.4949E-07 vs Tolerance =   1.6971E-04
     2. Ratio of euclidian displacement translational norms          
        Value =   1.2897E-05 vs Tolerance =   1.0000E-03
     3. Ratio of euclidian energy       translational norms          
        Value =   1.2201E-06 vs Tolerance =   1.0000E-02
      42 t 5.0000E-03 dt 5.00E-04 write d3plot file            11/21/19 09:29:29

 BEGIN implicit statics  step     11 t= 5.5000E-03             11/21/19 09:29:29
 ============================================================
                time =  5.50000E-03
   current step size =  5.00000E-04
 Iteration:   1     *|du|/|u| =  9.0468499E-02     *Ei/E0 =  9.8936630E-01
 Iteration:   2     *|du|/|u| =  8.4059929E-06     *Ei/E0 =  1.2334818E-06

 Equilibrium iterations summary step     11 t= 5.5000E-03      11/21/19 09:29:30
    Number of iterations to converge         =           2
    Number of stiffness reformations         =           0
    Number of right hand side evaluations    =           3

 Convergence detected as a combination of
     1. Current  maximum   displacement translational norm           
        Value =   1.7836E-07 vs Tolerance =   1.6971E-04
     2. Ratio of euclidian displacement translational norms          
        Value =   8.4060E-06 vs Tolerance =   1.0000E-03
     3. Ratio of euclidian energy       translational norms          
        Value =   1.2335E-06 vs Tolerance =   1.0000E-02
      46 t 5.5000E-03 dt 5.00E-04 write d3plot file            11/21/19 09:29:30

 BEGIN implicit statics  step     12 t= 6.0000E-03             11/21/19 09:29:30
 ============================================================
                time =  6.00000E-03
   current step size =  5.00000E-04
 Iteration:   1     *|du|/|u| =  8.2885538E-02     *Ei/E0 =  9.8831046E-01
 Iteration:   2     *|du|/|u| =  5.2268408E-06     *Ei/E0 =  1.2573465E-06

 Equilibrium iterations summary step     12 t= 6.0000E-03      11/21/19 09:29:31
    Number of iterations to converge         =           2
    Number of stiffness reformations         =           0
    Number of right hand side evaluations    =           3

 Convergence detected as a combination of
     1. Current  maximum   displacement translational norm           
        Value =   1.1649E-07 vs Tolerance =   1.6971E-04
     2. Ratio of euclidian displacement translational norms          
        Value =   5.2268E-06 vs Tolerance =   1.0000E-03
     3. Ratio of euclidian energy       translational norms          
        Value =   1.2573E-06 vs Tolerance =   1.0000E-02
      50 t 6.0000E-03 dt 5.00E-04 write d3plot file            11/21/19 09:29:31

 BEGIN implicit statics  step     13 t= 6.5000E-03             11/21/19 09:29:31
 ============================================================
                time =  6.50000E-03
   current step size =  5.00000E-04
 Iteration:   1     *|du|/|u| =  7.6469172E-02     *Ei/E0 =  9.8725605E-01
 Iteration:   2     *|du|/|u| =  4.0298440E-06     *Ei/E0 =  1.2916273E-06

 Equilibrium iterations summary step     13 t= 6.5000E-03      11/21/19 09:29:31
    Number of iterations to converge         =           2
    Number of stiffness reformations         =           0
    Number of right hand side evaluations    =           3

 Convergence detected as a combination of
     1. Current  maximum   displacement translational norm           
        Value =   1.3973E-07 vs Tolerance =   1.6971E-04
     2. Ratio of euclidian displacement translational norms          
        Value =   4.0298E-06 vs Tolerance =   1.0000E-03
     3. Ratio of euclidian energy       translational norms          
        Value =   1.2916E-06 vs Tolerance =   1.0000E-02
      54 t 6.5000E-03 dt 5.00E-04 write d3plot file            11/21/19 09:29:32

 BEGIN implicit statics  step     14 t= 7.0000E-03             11/21/19 09:29:32
 ============================================================
                time =  7.00000E-03
   current step size =  5.00000E-04
 Iteration:   1     *|du|/|u| =  7.0969427E-02     *Ei/E0 =  9.8620306E-01
 Iteration:   2     *|du|/|u| =  5.0203777E-06     *Ei/E0 =  1.3362449E-06

 Equilibrium iterations summary step     14 t= 7.0000E-03      11/21/19 09:29:32
    Number of iterations to converge         =           2
    Number of stiffness reformations         =           0
    Number of right hand side evaluations    =           3

 Convergence detected as a combination of
     1. Current  maximum   displacement translational norm           
        Value =   1.6845E-07 vs Tolerance =   1.6971E-04
     2. Ratio of euclidian displacement translational norms          
        Value =   5.0204E-06 vs Tolerance =   1.0000E-03
     3. Ratio of euclidian energy       translational norms          
        Value =   1.3362E-06 vs Tolerance =   1.0000E-02
      58 t 7.0000E-03 dt 5.00E-04 write d3plot file            11/21/19 09:29:32

 BEGIN implicit statics  step     15 t= 7.5000E-03             11/21/19 09:29:32
 ============================================================
                time =  7.50000E-03
   current step size =  5.00000E-04
 Iteration:   1     *|du|/|u| =  6.6202985E-02     *Ei/E0 =  9.8515150E-01
 Iteration:   2     *|du|/|u| =  6.8247179E-06     *Ei/E0 =  1.3911206E-06

 Equilibrium iterations summary step     15 t= 7.5000E-03      11/21/19 09:29:33
    Number of iterations to converge         =           2
    Number of stiffness reformations         =           0
    Number of right hand side evaluations    =           3

 Convergence detected as a combination of
     1. Current  maximum   displacement translational norm           
        Value =   1.9710E-07 vs Tolerance =   1.6971E-04
     2. Ratio of euclidian displacement translational norms          
        Value =   6.8247E-06 vs Tolerance =   1.0000E-03
     3. Ratio of euclidian energy       translational norms          
        Value =   1.3911E-06 vs Tolerance =   1.0000E-02
      62 t 7.5000E-03 dt 5.00E-04 write d3plot file            11/21/19 09:29:33

 BEGIN implicit statics  step     16 t= 8.0000E-03             11/21/19 09:29:33
 ============================================================
                time =  8.00000E-03
   current step size =  5.00000E-04
 Iteration:   1     *|du|/|u| =  6.2032356E-02     *Ei/E0 =  9.8410135E-01
 Iteration:   2     *|du|/|u| =  8.6880150E-06     *Ei/E0 =  1.4561761E-06

 Equilibrium iterations summary step     16 t= 8.0000E-03      11/21/19 09:29:34
    Number of iterations to converge         =           2
    Number of stiffness reformations         =           0
    Number of right hand side evaluations    =           3

 Convergence detected as a combination of
     1. Current  maximum   displacement translational norm           
        Value =   2.2567E-07 vs Tolerance =   1.6971E-04
     2. Ratio of euclidian displacement translational norms          
        Value =   8.6880E-06 vs Tolerance =   1.0000E-03
     3. Ratio of euclidian energy       translational norms          
        Value =   1.4562E-06 vs Tolerance =   1.0000E-02
      66 t 8.0000E-03 dt 5.00E-04 write d3plot file            11/21/19 09:29:34

 BEGIN implicit statics  step     17 t= 8.5000E-03             11/21/19 09:29:34
 ============================================================
                time =  8.50000E-03
   current step size =  5.00000E-04
 Iteration:   1     *|du|/|u| =  5.8352401E-02     *Ei/E0 =  9.8305263E-01
 Iteration:   2     *|du|/|u| =  1.0428615E-05     *Ei/E0 =  1.5313337E-06

 Equilibrium iterations summary step     17 t= 8.5000E-03      11/21/19 09:29:35
    Number of iterations to converge         =           2
    Number of stiffness reformations         =           0
    Number of right hand side evaluations    =           3

 Convergence detected as a combination of
     1. Current  maximum   displacement translational norm           
        Value =   2.9140E-07 vs Tolerance =   1.6971E-04
     2. Ratio of euclidian displacement translational norms          
        Value =   1.0429E-05 vs Tolerance =   1.0000E-03
     3. Ratio of euclidian energy       translational norms          
        Value =   1.5313E-06 vs Tolerance =   1.0000E-02
      70 t 8.5000E-03 dt 5.00E-04 write d3plot file            11/21/19 09:29:35

 BEGIN implicit statics  step     18 t= 9.0000E-03             11/21/19 09:29:35
 ============================================================
                time =  9.00000E-03
   current step size =  5.00000E-04
 Iteration:   1     *|du|/|u| =  5.5081342E-02     *Ei/E0 =  9.8200533E-01
 Iteration:   2     *|du|/|u| =  1.2013581E-05     *Ei/E0 =  1.6165163E-06

 Equilibrium iterations summary step     18 t= 9.0000E-03      11/21/19 09:29:35
    Number of iterations to converge         =           2
    Number of stiffness reformations         =           0
    Number of right hand side evaluations    =           3

 Convergence detected as a combination of
     1. Current  maximum   displacement translational norm           
        Value =   3.6439E-07 vs Tolerance =   1.6971E-04
     2. Ratio of euclidian displacement translational norms          
        Value =   1.2014E-05 vs Tolerance =   1.0000E-03
     3. Ratio of euclidian energy       translational norms          
        Value =   1.6165E-06 vs Tolerance =   1.0000E-02
      74 t 9.0000E-03 dt 5.00E-04 write d3plot file            11/21/19 09:29:36

 BEGIN implicit statics  step     19 t= 9.5000E-03             11/21/19 09:29:36
 ============================================================
                time =  9.50000E-03
   current step size =  5.00000E-04
 Iteration:   1     *|du|/|u| =  5.2154619E-02     *Ei/E0 =  9.8095944E-01
 Iteration:   2     *|du|/|u| =  4.2571139E-03     *Ei/E0 =  1.9075343E-02
 Iteration:   3     *|du|/|u| =  1.4816605E-03     *Ei/E0 =  3.3193744E-03

 Equilibrium iterations summary step     19 t= 9.5000E-03      11/21/19 09:29:36
    Number of iterations to converge         =           3
    Number of stiffness reformations         =           0
    Number of right hand side evaluations    =           4

 Convergence detected as a combination of
     1. Current  maximum   displacement translational norm           
        Value =   7.0306E-05 vs Tolerance =   1.6971E-04
      79 t 9.5000E-03 dt 5.00E-04 write d3plot file            11/21/19 09:29:37

 BEGIN implicit statics  step     20 t= 1.0000E-02             11/21/19 09:29:37
 ============================================================
                time =  1.00000E-02
   current step size =  5.00000E-04
 Iteration:   1     *|du|/|u| =  5.4205445E-02     *Ei/E0 =  1.0000000E+00
 Iteration:   2     *|du|/|u| =  4.8437374E-03     *Ei/E0 =  1.9471572E-02
 Iteration:   3     *|du|/|u| =  1.0241803E-04     *Ei/E0 =  2.0540675E-04

 Equilibrium iterations summary step     20 t= 1.0000E-02      11/21/19 09:29:37
    Number of iterations to converge         =           3
    Number of stiffness reformations         =           0
    Number of right hand side evaluations    =           4

 Convergence detected as a combination of
     1. Current  maximum   displacement translational norm           
        Value =   4.0249E-06 vs Tolerance =   1.6971E-04
     2. Ratio of euclidian displacement translational norms          
        Value =   1.0242E-04 vs Tolerance =   1.0000E-03
     3. Ratio of euclidian energy       translational norms          
        Value =   2.0541E-04 vs Tolerance =   1.0000E-02
      84 t 1.0000E-02 dt 5.00E-04 write d3plot file            11/21/19 09:29:38

 BEGIN implicit statics  step     21 t= 1.0500E-02             11/21/19 09:29:38
 ============================================================
                time =  1.05000E-02
   current step size =  5.00000E-04
 Iteration:   1     *|du|/|u| =  5.5344246E-02     *Ei/E0 =  1.0000000E+00
 Iteration:   2     *|du|/|u| =  4.9114762E-03     *Ei/E0 =  1.6371812E-02
 Iteration:   3     *|du|/|u| =  2.5929761E-03     *Ei/E0 =  3.4505571E-03

 Equilibrium iterations summary step     21 t= 1.0500E-02      11/21/19 09:29:39
    Number of iterations to converge         =           3
    Number of stiffness reformations         =           0
    Number of right hand side evaluations    =           4

 Convergence detected as a combination of
     1. Current  maximum   displacement translational norm           
        Value =   1.0332E-04 vs Tolerance =   1.6971E-04
      89 t 1.0500E-02 dt 5.00E-04 write d3plot file            11/21/19 09:29:39

 BEGIN implicit statics  step     22 t= 1.1000E-02             11/21/19 09:29:39
 ============================================================
                time =  1.10000E-02
   current step size =  5.00000E-04
 Iteration:   1     *|du|/|u| =  5.8743251E-02     *Ei/E0 =  1.0000000E+00
 DIVERGENCE (increasing translational residual norm) detected:
   current norm   9.052E+00 exceeds prior maximum   5.006E+00

 automatically REFORMING stiffness matrix...
 Iteration:   2     *|du|/|u| =  3.4371445E-02     *Ei/E0 =  3.3788658E-01
 Iteration:   3     *|du|/|u| =  1.6131882E-02     *Ei/E0 =  6.7372815E-02
 Iteration:   4     *|du|/|u| =  3.0386962E-03     *Ei/E0 =  6.6457054E-03
 Iteration:   5     *|du|/|u| =  1.5561468E-04     *Ei/E0 =  2.3241984E-04

 Equilibrium iterations summary step     22 t= 1.1000E-02      11/21/19 09:29:40
    Number of iterations to converge         =           5
    Number of stiffness reformations         =           1
    Number of right hand side evaluations    =           7

 Convergence detected as a combination of
     1. Current  maximum   displacement translational norm           
        Value =   7.4501E-06 vs Tolerance =   1.6971E-04
     2. Ratio of euclidian displacement translational norms          
        Value =   1.5561E-04 vs Tolerance =   1.0000E-03
     3. Ratio of euclidian energy       translational norms          
        Value =   2.3242E-04 vs Tolerance =   1.0000E-02
      97 t 1.1000E-02 dt 5.00E-04 write d3plot file            11/21/19 09:29:40

 BEGIN implicit statics  step     23 t= 1.1500E-02             11/21/19 09:29:40
 ============================================================
                time =  1.15000E-02
   current step size =  5.00000E-04
 Iteration:   1     *|du|/|u| =  9.6582431E-02     *Ei/E0 =  1.0000000E+00
 DIVERGENCE (increasing translational residual norm) detected:
   current norm   1.113E+01 exceeds prior maximum   5.000E+00

 automatically REFORMING stiffness matrix...
 Iteration:   2     *|du|/|u| =  4.6522417E-02     *Ei/E0 =  2.1395613E-01
 Iteration:   3     *|du|/|u| =  2.9416360E-02     *Ei/E0 =  5.8269254E-02
 Iteration:   4     *|du|/|u| =  1.3267762E-02     *Ei/E0 =  1.0933182E-02
 Iteration:   5     *|du|/|u| =  3.3079474E-03     *Ei/E0 =  1.6716796E-03
 Iteration:   6     *|du|/|u| =  8.5328037E-05     *Ei/E0 =  1.1513295E-04

 Equilibrium iterations summary step     23 t= 1.1500E-02      11/21/19 09:29:41
    Number of iterations to converge         =           6
    Number of stiffness reformations         =           1
    Number of right hand side evaluations    =           8

 Convergence detected as a combination of
     1. Current  maximum   displacement translational norm           
        Value =   5.8896E-06 vs Tolerance =   1.6971E-04
     2. Ratio of euclidian displacement translational norms          
        Value =   8.5328E-05 vs Tolerance =   1.0000E-03
     3. Ratio of euclidian energy       translational norms          
        Value =   1.1513E-04 vs Tolerance =   1.0000E-02
     106 t 1.1500E-02 dt 5.00E-04 write d3plot file            11/21/19 09:29:42

 BEGIN implicit statics  step     24 t= 1.2000E-02             11/21/19 09:29:42
 ============================================================
                time =  1.20000E-02
   current step size =  5.00000E-04
 Iteration:   1     *|du|/|u| =  1.4971825E-01     *Ei/E0 =  1.0000000E+00
 DIVERGENCE (increasing translational residual norm) detected:
   current norm   1.931E+01 exceeds prior maximum   5.030E+00

 automatically REFORMING stiffness matrix...
 Iteration:   2     *|du|/|u| =  9.5533256E-02     *Ei/E0 =  3.4983593E-01
 Iteration:   3     *|du|/|u| =  7.9683752E-02     *Ei/E0 =  1.5367620E-01
 Iteration:   4     *|du|/|u| =  5.4476707E-02     *Ei/E0 =  6.2228259E-02
 Iteration:   5     *|du|/|u| =  1.2960898E-02     *Ei/E0 =  1.0050939E-02
 Iteration:   6     *|du|/|u| =  4.3347946E-04     *Ei/E0 =  1.8726667E-03

 Equilibrium iterations summary step     24 t= 1.2000E-02      11/21/19 09:29:43
    Number of iterations to converge         =           6
    Number of stiffness reformations         =           1
    Number of right hand side evaluations    =           8

 Convergence detected as a combination of
     1. Current  maximum   displacement translational norm           
        Value =   4.5021E-05 vs Tolerance =   1.6971E-04
     2. Ratio of euclidian displacement translational norms          
        Value =   4.3348E-04 vs Tolerance =   1.0000E-03
     3. Ratio of euclidian energy       translational norms          
        Value =   1.8727E-03 vs Tolerance =   1.0000E-02
     115 t 1.2000E-02 dt 5.00E-04 write d3plot file            11/21/19 09:29:43

 BEGIN implicit statics  step     25 t= 1.2500E-02             11/21/19 09:29:43
 ============================================================
                time =  1.25000E-02
   current step size =  5.00000E-04
 Iteration:   1     *|du|/|u| =  2.4740170E-01     *Ei/E0 =  1.0000000E+00
 DIVERGENCE (increasing translational residual norm) detected:
   current norm   3.047E+01 exceeds prior maximum   4.798E+00

 automatically REFORMING stiffness matrix...
 Iteration:   2     *|du|/|u| =  2.9744987E-01     *Ei/E0 =  1.2092037E+00
 DIVERGENCE (increasing translational residual norm) detected:
   current norm   4.533E+01 exceeds prior maximum   3.047E+01

 automatically REFORMING stiffness matrix...
 Iteration:   3     *|du|/|u| =  1.2182580E-01     *Ei/E0 =  2.9971881E-01
 Iteration:   4     *|du|/|u| =  6.7869034E-02     *Ei/E0 =  7.2815218E-02
 Iteration:   5     *|du|/|u| =  8.0793094E-03     *Ei/E0 =  7.1299239E-03
 Iteration:   6     *|du|/|u| =  2.0592854E-03     *Ei/E0 =  2.9405450E-03
 Iteration:   7     *|du|/|u| =  2.7794147E-03     *Ei/E0 =  1.0509365E-03
 Iteration:   8     *|du|/|u| =  1.8126594E-03     *Ei/E0 =  1.2054313E-04
 Iteration:   9     *|du|/|u| =  5.5751777E-04     *Ei/E0 =  1.9320853E-05

 Equilibrium iterations summary step     25 t= 1.2500E-02      11/21/19 09:29:45
    Number of iterations to converge         =           9
    Number of stiffness reformations         =           2
    Number of right hand side evaluations    =          12

 Convergence detected as a combination of
     1. Current  maximum   displacement translational norm           
        Value =   1.2006E-04 vs Tolerance =   1.6971E-04
     2. Ratio of euclidian displacement translational norms          
        Value =   5.5752E-04 vs Tolerance =   1.0000E-03
     3. Ratio of euclidian energy       translational norms          
        Value =   1.9321E-05 vs Tolerance =   1.0000E-02
     128 t 1.2500E-02 dt 5.00E-04 write d3plot file            11/21/19 09:29:45

 BEGIN implicit statics  step     26 t= 1.3000E-02             11/21/19 09:29:45
 ============================================================
                time =  1.30000E-02
   current step size =  5.00000E-04
 Iteration:   1     *|du|/|u| =  3.5482255E-01     *Ei/E0 =  1.0000000E+00
 DIVERGENCE (increasing translational residual norm) detected:
   current norm   5.023E+01 exceeds prior maximum   5.088E+00

 automatically REFORMING stiffness matrix...
 Iteration:   2     *|du|/|u| =  1.6236217E-01     *Ei/E0 =  3.3422899E-01
 DIVERGENCE (increasing translational residual norm) detected:
   current norm   5.098E+01 exceeds prior maximum   5.023E+01

 automatically REFORMING stiffness matrix...
 Iteration:   3     *|du|/|u| =  4.6266006E-02     *Ei/E0 =  4.2726985E-02
 Iteration:   4     *|du|/|u| =  1.8449713E-02     *Ei/E0 =  3.9247887E-03
 Iteration:   5     *|du|/|u| =  1.7295264E-03     *Ei/E0 =  1.1886445E-04
 Iteration:   6     *|du|/|u| =  5.8317059E-04     *Ei/E0 =  6.5062428E-05

 Equilibrium iterations summary step     26 t= 1.3000E-02      11/21/19 09:29:46
    Number of iterations to converge         =           6
    Number of stiffness reformations         =           2
    Number of right hand side evaluations    =          15

 Convergence detected as a combination of
     1. Ratio of euclidian displacement translational norms          
        Value =   5.8317E-04 vs Tolerance =   1.0000E-03
     2. Ratio of euclidian energy       translational norms          
        Value =   6.5062E-05 vs Tolerance =   1.0000E-02
     144 t 1.3000E-02 dt 5.00E-04 write d3plot file            11/21/19 09:29:46

 BEGIN implicit statics  step     27 t= 1.3500E-02             11/21/19 09:29:46
 ============================================================
                time =  1.35000E-02
   current step size =  5.00000E-04
 Iteration:   1     *|du|/|u| =  2.3851827E-01     *Ei/E0 =  9.7875685E-01
 DIVERGENCE (increasing translational residual norm) detected:
   current norm   5.089E+01 exceeds prior maximum   5.292E+00

 automatically REFORMING stiffness matrix...
 Iteration:   2     *|du|/|u| =  1.0759301E-01     *Ei/E0 =  2.9400396E-01
 Iteration:   3     *|du|/|u| =  3.3745557E-02     *Ei/E0 =  3.4259828E-02
 Iteration:   4     *|du|/|u| =  6.5751621E-03     *Ei/E0 =  3.1960051E-03
 Iteration:   5     *|du|/|u| =  2.3313073E-03     *Ei/E0 =  1.7921521E-04
 Iteration:   6     *|du|/|u| =  5.4783310E-05     *Ei/E0 =  5.6033089E-05

 Equilibrium iterations summary step     27 t= 1.3500E-02      11/21/19 09:29:47
    Number of iterations to converge         =           6
    Number of stiffness reformations         =           1
    Number of right hand side evaluations    =          14

 Convergence detected as a combination of
     1. Current  maximum   displacement translational norm           
        Value =   2.4622E-05 vs Tolerance =   1.6971E-04
     2. Ratio of euclidian displacement translational norms          
        Value =   5.4783E-05 vs Tolerance =   1.0000E-03
     3. Ratio of euclidian energy       translational norms          
        Value =   5.6033E-05 vs Tolerance =   1.0000E-02
     159 t 1.3500E-02 dt 5.00E-04 write d3plot file            11/21/19 09:29:47

 BEGIN implicit statics  step     28 t= 1.4000E-02             11/21/19 09:29:47
 ============================================================
                time =  1.40000E-02
   current step size =  5.00000E-04
 Iteration:   1     *|du|/|u| =  1.7304600E-01     *Ei/E0 =  9.1108404E-01
 DIVERGENCE (increasing translational residual norm) detected:
   current norm   4.737E+01 exceeds prior maximum   5.420E+00

 automatically REFORMING stiffness matrix...
 Iteration:   2     *|du|/|u| =  8.0434755E-02     *Ei/E0 =  2.7030442E-01
 Iteration:   3     *|du|/|u| =  2.4399872E-02     *Ei/E0 =  2.9053517E-02
 Iteration:   4     *|du|/|u| =  4.4333209E-03     *Ei/E0 =  2.4429684E-03
 Iteration:   5     *|du|/|u| =  1.4356571E-03     *Ei/E0 =  1.3899186E-04
 Iteration:   6     *|du|/|u| =  7.0450240E-05     *Ei/E0 =  5.8663473E-05

 Equilibrium iterations summary step     28 t= 1.4000E-02      11/21/19 09:29:48
    Number of iterations to converge         =           6
    Number of stiffness reformations         =           1
    Number of right hand side evaluations    =          14

 Convergence detected as a combination of
     1. Current  maximum   displacement translational norm           
        Value =   4.4572E-05 vs Tolerance =   1.6971E-04
     2. Ratio of euclidian displacement translational norms          
        Value =   7.0450E-05 vs Tolerance =   1.0000E-03
     3. Ratio of euclidian energy       translational norms          
        Value =   5.8663E-05 vs Tolerance =   1.0000E-02
     174 t 1.4000E-02 dt 5.00E-04 write d3plot file            11/21/19 09:29:48

 BEGIN implicit statics  step     29 t= 1.4500E-02             11/21/19 09:29:48
 ============================================================
                time =  1.45000E-02
   current step size =  5.00000E-04
 Iteration:   1     *|du|/|u| =  1.3431579E-01     *Ei/E0 =  8.5013976E-01
 DIVERGENCE (increasing translational residual norm) detected:
   current norm   4.345E+01 exceeds prior maximum   5.350E+00

 automatically REFORMING stiffness matrix...
 Iteration:   2     *|du|/|u| =  6.3603486E-02     *Ei/E0 =  2.4909257E-01
 Iteration:   3     *|du|/|u| =  1.8580699E-02     *Ei/E0 =  2.4599804E-02
 Iteration:   4     *|du|/|u| =  3.1117429E-03     *Ei/E0 =  1.8431615E-03
 Iteration:   5     *|du|/|u| =  9.2417422E-04     *Ei/E0 =  1.0498919E-04

 Equilibrium iterations summary step     29 t= 1.4500E-02      11/21/19 09:29:49
    Number of iterations to converge         =           5
    Number of stiffness reformations         =           1
    Number of right hand side evaluations    =          13

 Convergence detected as a combination of
     1. Ratio of euclidian displacement translational norms          
        Value =   9.2417E-04 vs Tolerance =   1.0000E-03
     2. Ratio of euclidian energy       translational norms          
        Value =   1.0499E-04 vs Tolerance =   1.0000E-02
     188 t 1.4500E-02 dt 5.00E-04 write d3plot file            11/21/19 09:29:49

 BEGIN implicit statics  step     30 t= 1.5000E-02             11/21/19 09:29:49
 ============================================================
                time =  1.50000E-02
   current step size =  5.00000E-04
 Iteration:   1     *|du|/|u| =  1.0886911E-01     *Ei/E0 =  7.9542157E-01
 DIVERGENCE (increasing translational residual norm) detected:
   current norm   4.017E+01 exceeds prior maximum   5.671E+00

 automatically REFORMING stiffness matrix...
 Iteration:   2     *|du|/|u| =  5.2180815E-02     *Ei/E0 =  2.3031049E-01
 Iteration:   3     *|du|/|u| =  1.4680773E-02     *Ei/E0 =  2.1010739E-02
 Iteration:   4     *|du|/|u| =  2.2815416E-03     *Ei/E0 =  1.4538566E-03
 Iteration:   5     *|du|/|u| =  6.3824372E-04     *Ei/E0 =  9.5651702E-05

 Equilibrium iterations summary step     30 t= 1.5000E-02      11/21/19 09:29:50
    Number of iterations to converge         =           5
    Number of stiffness reformations         =           1
    Number of right hand side evaluations    =          13

 Convergence detected as a combination of
     1. Ratio of euclidian displacement translational norms          
        Value =   6.3824E-04 vs Tolerance =   1.0000E-03
     2. Ratio of euclidian energy       translational norms          
        Value =   9.5652E-05 vs Tolerance =   1.0000E-02
     202 t 1.5000E-02 dt 5.00E-04 write d3plot file            11/21/19 09:29:50

 BEGIN implicit statics  step     31 t= 1.5500E-02             11/21/19 09:29:50
 ============================================================
                time =  1.55000E-02
   current step size =  5.00000E-04
 Iteration:   1     *|du|/|u| =  9.0867453E-02     *Ei/E0 =  7.4514619E-01
 DIVERGENCE (increasing translational residual norm) detected:
   current norm   3.691E+01 exceeds prior maximum   5.672E+00

 automatically REFORMING stiffness matrix...
 Iteration:   2     *|du|/|u| =  4.3913261E-02     *Ei/E0 =  2.1322312E-01
 Iteration:   3     *|du|/|u| =  1.1872111E-02     *Ei/E0 =  1.7900849E-02
 Iteration:   4     *|du|/|u| =  1.6940974E-03     *Ei/E0 =  1.1014825E-03
 Iteration:   5     *|du|/|u| =  4.4121366E-04     *Ei/E0 =  7.6685818E-05

 Equilibrium iterations summary step     31 t= 1.5500E-02      11/21/19 09:29:51
    Number of iterations to converge         =           5
    Number of stiffness reformations         =           1
    Number of right hand side evaluations    =          11

 Convergence detected as a combination of
     1. Ratio of euclidian displacement translational norms          
        Value =   4.4121E-04 vs Tolerance =   1.0000E-03
     2. Ratio of euclidian energy       translational norms          
        Value =   7.6686E-05 vs Tolerance =   1.0000E-02
     214 t 1.5500E-02 dt 5.00E-04 write d3plot file            11/21/19 09:29:51

 BEGIN implicit statics  step     32 t= 1.6000E-02             11/21/19 09:29:51
 ============================================================
                time =  1.60000E-02
   current step size =  5.00000E-04
 Iteration:   1     *|du|/|u| =  7.7520396E-02     *Ei/E0 =  6.9927515E-01
 DIVERGENCE (increasing translational residual norm) detected:
   current norm   3.366E+01 exceeds prior maximum   5.631E+00

 automatically REFORMING stiffness matrix...
 Iteration:   2     *|du|/|u| =  3.7752216E-02     *Ei/E0 =  1.9850794E-01
 Iteration:   3     *|du|/|u| =  9.8069606E-03     *Ei/E0 =  1.5327908E-02
 Iteration:   4     *|du|/|u| =  1.2849943E-03     *Ei/E0 =  8.4618223E-04
 Iteration:   5     *|du|/|u| =  3.1378331E-04     *Ei/E0 =  6.1954806E-05

 Equilibrium iterations summary step     32 t= 1.6000E-02      11/21/19 09:29:51
    Number of iterations to converge         =           5
    Number of stiffness reformations         =           1
    Number of right hand side evaluations    =          11

 Convergence detected as a combination of
     1. Ratio of euclidian displacement translational norms          
        Value =   3.1378E-04 vs Tolerance =   1.0000E-03
     2. Ratio of euclidian energy       translational norms          
        Value =   6.1955E-05 vs Tolerance =   1.0000E-02
     226 t 1.6000E-02 dt 5.00E-04 write d3plot file            11/21/19 09:29:52

 BEGIN implicit statics  step     33 t= 1.6500E-02             11/21/19 09:29:52
 ============================================================
                time =  1.65000E-02
   current step size =  5.00000E-04
 Iteration:   1     *|du|/|u| =  6.7234886E-02     *Ei/E0 =  6.5702806E-01
 DIVERGENCE (increasing translational residual norm) detected:
   current norm   3.086E+01 exceeds prior maximum   5.592E+00

 automatically REFORMING stiffness matrix...
 Iteration:   2     *|du|/|u| =  3.2941071E-02     *Ei/E0 =  1.8518396E-01
 Iteration:   3     *|du|/|u| =  8.2276912E-03     *Ei/E0 =  1.3188565E-02
 Iteration:   4     *|du|/|u| =  9.9187590E-04     *Ei/E0 =  6.5706064E-04

 Equilibrium iterations summary step     33 t= 1.6500E-02      11/21/19 09:29:52
    Number of iterations to converge         =           4
    Number of stiffness reformations         =           1
    Number of right hand side evaluations    =          10

 Convergence detected as a combination of
     1. Ratio of euclidian displacement translational norms          
        Value =   9.9188E-04 vs Tolerance =   1.0000E-03
     2. Ratio of euclidian energy       translational norms          
        Value =   6.5706E-04 vs Tolerance =   1.0000E-02
     237 t 1.6500E-02 dt 5.00E-04 write d3plot file            11/21/19 09:29:52

 BEGIN implicit statics  step     34 t= 1.7000E-02             11/21/19 09:29:52
 ============================================================
                time =  1.70000E-02
   current step size =  5.00000E-04
 Iteration:   1     *|du|/|u| =  5.9294004E-02     *Ei/E0 =  6.2215541E-01
 DIVERGENCE (increasing translational residual norm) detected:
   current norm   2.862E+01 exceeds prior maximum   5.967E+00

 automatically REFORMING stiffness matrix...
 Iteration:   2     *|du|/|u| =  2.9156363E-02     *Ei/E0 =  1.7399122E-01
 Iteration:   3     *|du|/|u| =  7.0156604E-03     *Ei/E0 =  1.1530544E-02
 Iteration:   4     *|du|/|u| =  7.8877359E-04     *Ei/E0 =  5.3861335E-04

 Equilibrium iterations summary step     34 t= 1.7000E-02      11/21/19 09:29:53
    Number of iterations to converge         =           4
    Number of stiffness reformations         =           1
    Number of right hand side evaluations    =          10

 Convergence detected as a combination of
     1. Ratio of euclidian displacement translational norms          
        Value =   7.8877E-04 vs Tolerance =   1.0000E-03
     2. Ratio of euclidian energy       translational norms          
        Value =   5.3861E-04 vs Tolerance =   1.0000E-02
     248 t 1.7000E-02 dt 5.00E-04 write d3plot file            11/21/19 09:29:53

 BEGIN implicit statics  step     35 t= 1.7500E-02             11/21/19 09:29:53
 ============================================================
                time =  1.75000E-02
   current step size =  5.00000E-04
 Iteration:   1     *|du|/|u| =  5.2640978E-02     *Ei/E0 =  5.8550883E-01
 DIVERGENCE (increasing translational residual norm) detected:
   current norm   2.637E+01 exceeds prior maximum   5.949E+00

 automatically REFORMING stiffness matrix...
 Iteration:   2     *|du|/|u| =  2.5977240E-02     *Ei/E0 =  1.6265075E-01
 Iteration:   3     *|du|/|u| =  6.0229687E-03     *Ei/E0 =  9.9869953E-03
 Iteration:   4     *|du|/|u| =  6.2388910E-04     *Ei/E0 =  4.2565432E-04

 Equilibrium iterations summary step     35 t= 1.7500E-02      11/21/19 09:29:54
    Number of iterations to converge         =           4
    Number of stiffness reformations         =           1
    Number of right hand side evaluations    =          10

 Convergence detected as a combination of
     1. Ratio of euclidian displacement translational norms          
        Value =   6.2389E-04 vs Tolerance =   1.0000E-03
     2. Ratio of euclidian energy       translational norms          
        Value =   4.2565E-04 vs Tolerance =   1.0000E-02
     259 t 1.7500E-02 dt 5.00E-04 write d3plot file            11/21/19 09:29:54

 BEGIN implicit statics  step     36 t= 1.8000E-02             11/21/19 09:29:54
 ============================================================
                time =  1.80000E-02
   current step size =  5.00000E-04
 Iteration:   1     *|du|/|u| =  4.7163812E-02     *Ei/E0 =  5.5192518E-01
 DIVERGENCE (increasing translational residual norm) detected:
   current norm   2.436E+01 exceeds prior maximum   5.896E+00

 automatically REFORMING stiffness matrix...
 Iteration:   2     *|du|/|u| =  2.3337596E-02     *Ei/E0 =  1.5232998E-01
 Iteration:   3     *|du|/|u| =  5.2184111E-03     *Ei/E0 =  8.6795467E-03
 Iteration:   4     *|du|/|u| =  4.9785524E-04     *Ei/E0 =  3.3689997E-04

 Equilibrium iterations summary step     36 t= 1.8000E-02      11/21/19 09:29:55
    Number of iterations to converge         =           4
    Number of stiffness reformations         =           1
    Number of right hand side evaluations    =          10

 Convergence detected as a combination of
     1. Ratio of euclidian displacement translational norms          
        Value =   4.9786E-04 vs Tolerance =   1.0000E-03
     2. Ratio of euclidian energy       translational norms          
        Value =   3.3690E-04 vs Tolerance =   1.0000E-02
     270 t 1.8000E-02 dt 5.00E-04 write d3plot file            11/21/19 09:29:55

 BEGIN implicit statics  step     37 t= 1.8500E-02             11/21/19 09:29:55
 ============================================================
                time =  1.85000E-02
   current step size =  5.00000E-04
 Iteration:   1     *|du|/|u| =  4.2585374E-02     *Ei/E0 =  5.2105198E-01
 DIVERGENCE (increasing translational residual norm) detected:
   current norm   2.254E+01 exceeds prior maximum   5.846E+00

 automatically REFORMING stiffness matrix...
 Iteration:   2     *|du|/|u| =  2.1112674E-02     *Ei/E0 =  1.4288306E-01
 Iteration:   3     *|du|/|u| =  4.5568342E-03     *Ei/E0 =  7.5688954E-03
 Iteration:   4     *|du|/|u| =  4.0063212E-04     *Ei/E0 =  2.6802847E-04

 Equilibrium iterations summary step     37 t= 1.8500E-02      11/21/19 09:29:55
    Number of iterations to converge         =           4
    Number of stiffness reformations         =           1
    Number of right hand side evaluations    =          10

 Convergence detected as a combination of
     1. Ratio of euclidian displacement translational norms          
        Value =   4.0063E-04 vs Tolerance =   1.0000E-03
     2. Ratio of euclidian energy       translational norms          
        Value =   2.6803E-04 vs Tolerance =   1.0000E-02
     281 t 1.8500E-02 dt 5.00E-04 write d3plot file            11/21/19 09:29:55

 BEGIN implicit statics  step     38 t= 1.9000E-02             11/21/19 09:29:55
 ============================================================
                time =  1.90000E-02
   current step size =  5.00000E-04
 Iteration:   1     *|du|/|u| =  3.8707711E-02     *Ei/E0 =  4.9259324E-01
 DIVERGENCE (increasing translational residual norm) detected:
   current norm   2.091E+01 exceeds prior maximum   5.802E+00

 automatically REFORMING stiffness matrix...
 Iteration:   2     *|du|/|u| =  1.9214861E-02     *Ei/E0 =  1.3421435E-01
 Iteration:   3     *|du|/|u| =  4.0062909E-03     *Ei/E0 =  6.6217336E-03
 Iteration:   4     *|du|/|u| =  3.2485303E-04     *Ei/E0 =  2.1444713E-04

 Equilibrium iterations summary step     38 t= 1.9000E-02      11/21/19 09:29:56
    Number of iterations to converge         =           4
    Number of stiffness reformations         =           1
    Number of right hand side evaluations    =          10

 Convergence detected as a combination of
     1. Ratio of euclidian displacement translational norms          
        Value =   3.2485E-04 vs Tolerance =   1.0000E-03
     2. Ratio of euclidian energy       translational norms          
        Value =   2.1445E-04 vs Tolerance =   1.0000E-02
     292 t 1.9000E-02 dt 5.00E-04 write d3plot file            11/21/19 09:29:56

 BEGIN implicit statics  step     39 t= 1.9500E-02             11/21/19 09:29:56
 ============================================================
                time =  1.95000E-02
   current step size =  5.00000E-04
 Iteration:   1     *|du|/|u| =  3.5386738E-02     *Ei/E0 =  4.6630320E-01
 DIVERGENCE (increasing translational residual norm) detected:
   current norm   1.944E+01 exceeds prior maximum   5.766E+00

 automatically REFORMING stiffness matrix...
 Iteration:   2     *|du|/|u| =  1.7579659E-02     *Ei/E0 =  1.2624473E-01
 Iteration:   3     *|du|/|u| =  3.5434445E-03     *Ei/E0 =  5.8110194E-03
 Iteration:   4     *|du|/|u| =  2.6523014E-04     *Ei/E0 =  1.7256780E-04

 Equilibrium iterations summary step     39 t= 1.9500E-02      11/21/19 09:29:57
    Number of iterations to converge         =           4
    Number of stiffness reformations         =           1
    Number of right hand side evaluations    =          10

 Convergence detected as a combination of
     1. Ratio of euclidian displacement translational norms          
        Value =   2.6523E-04 vs Tolerance =   1.0000E-03
     2. Ratio of euclidian energy       translational norms          
        Value =   1.7257E-04 vs Tolerance =   1.0000E-02
     303 t 1.9500E-02 dt 5.00E-04 write d3plot file            11/21/19 09:29:57

 BEGIN implicit statics  step     40 t= 2.0000E-02             11/21/19 09:29:57
 ============================================================
                time =  2.00000E-02
   current step size =  5.00000E-04
 Iteration:   1     *|du|/|u| =  3.2054354E-02     *Ei/E0 =  4.4196928E-01
 DIVERGENCE (increasing translational residual norm) detected:
   current norm   5.683E+01 exceeds prior maximum   5.735E+00

 automatically REFORMING stiffness matrix...
 Iteration:   2     *|du|/|u| =  4.1333410E-03     *Ei/E0 =  2.3484661E-02
 Iteration:   3     *|du|/|u| =  1.0980899E-03     *Ei/E0 =  7.5301779E-04
 Iteration:   4     *|du|/|u| =  1.6175130E-04     *Ei/E0 =  5.7780233E-05

 Equilibrium iterations summary step     40 t= 2.0000E-02      11/21/19 09:29:57
    Number of iterations to converge         =           4
    Number of stiffness reformations         =           1
    Number of right hand side evaluations    =           6

 Convergence detected as a combination of
     1. Ratio of euclidian displacement translational norms          
        Value =   1.6175E-04 vs Tolerance =   1.0000E-03
     2. Ratio of euclidian energy       translational norms          
        Value =   5.7780E-05 vs Tolerance =   1.0000E-02
     310 t 2.0000E-02 dt 5.00E-04 write d3plot file            11/21/19 09:29:57

 BEGIN implicit statics  step     41 t= 2.0500E-02             11/21/19 09:29:57
 ============================================================
                time =  2.05000E-02
   current step size =  5.00000E-04
 Iteration:   1     *|du|/|u| =  2.9600139E-02     *Ei/E0 =  4.1934981E-01
 DIVERGENCE (increasing translational residual norm) detected:
   current norm   5.255E+01 exceeds prior maximum   5.603E+00

 automatically REFORMING stiffness matrix...
 Iteration:   2     *|du|/|u| =  3.7402340E-03     *Ei/E0 =  2.0552111E-02
 Iteration:   3     *|du|/|u| =  9.5933141E-04     *Ei/E0 =  6.3690686E-04

 Equilibrium iterations summary step     41 t= 2.0500E-02      11/21/19 09:29:58
    Number of iterations to converge         =           3
    Number of stiffness reformations         =           1
    Number of right hand side evaluations    =           5

 Convergence detected as a combination of
     1. Ratio of euclidian displacement translational norms          
        Value =   9.5933E-04 vs Tolerance =   1.0000E-03
     2. Ratio of euclidian energy       translational norms          
        Value =   6.3691E-04 vs Tolerance =   1.0000E-02
     316 t 2.0500E-02 dt 5.00E-04 write d3plot file            11/21/19 09:29:58

 BEGIN implicit statics  step     42 t= 2.1000E-02             11/21/19 09:29:58
 ============================================================
                time =  2.10000E-02
   current step size =  5.00000E-04
 Iteration:   1     *|du|/|u| =  2.7609290E-02     *Ei/E0 =  4.0333207E-01
 DIVERGENCE (increasing translational residual norm) detected:
   current norm   5.094E+01 exceeds prior maximum   6.175E+00

 automatically REFORMING stiffness matrix...
 Iteration:   2     *|du|/|u| =  3.5384566E-03     *Ei/E0 =  2.0790380E-02
 Iteration:   3     *|du|/|u| =  1.0175784E-03     *Ei/E0 =  1.3445557E-03
 Iteration:   4     *|du|/|u| =  1.4916902E-04     *Ei/E0 =  2.0211438E-04

 Equilibrium iterations summary step     42 t= 2.1000E-02      11/21/19 09:29:59
    Number of iterations to converge         =           4
    Number of stiffness reformations         =           1
    Number of right hand side evaluations    =           6

 Convergence detected as a combination of
     1. Ratio of euclidian displacement translational norms          
        Value =   1.4917E-04 vs Tolerance =   1.0000E-03
     2. Ratio of euclidian energy       translational norms          
        Value =   2.0211E-04 vs Tolerance =   1.0000E-02
     323 t 2.1000E-02 dt 5.00E-04 write d3plot file            11/21/19 09:29:59

 BEGIN implicit statics  step     43 t= 2.1500E-02             11/21/19 09:29:59
 ============================================================
                time =  2.15000E-02
   current step size =  5.00000E-04
 Iteration:   1     *|du|/|u| =  2.5799431E-02     *Ei/E0 =  3.8494597E-01
 DIVERGENCE (increasing translational residual norm) detected:
   current norm   4.738E+01 exceeds prior maximum   5.670E+00

 automatically REFORMING stiffness matrix...
 Iteration:   2     *|du|/|u| =  3.1436111E-03     *Ei/E0 =  1.7004947E-02
 Iteration:   3     *|du|/|u| =  7.8380646E-04     *Ei/E0 =  6.1497620E-04

 Equilibrium iterations summary step     43 t= 2.1500E-02      11/21/19 09:29:59
    Number of iterations to converge         =           3
    Number of stiffness reformations         =           1
    Number of right hand side evaluations    =           5

 Convergence detected as a combination of
     1. Ratio of euclidian displacement translational norms          
        Value =   7.8381E-04 vs Tolerance =   1.0000E-03
     2. Ratio of euclidian energy       translational norms          
        Value =   6.1498E-04 vs Tolerance =   1.0000E-02
     329 t 2.1500E-02 dt 5.00E-04 write d3plot file            11/21/19 09:29:59

 BEGIN implicit statics  step     44 t= 2.2000E-02             11/21/19 09:29:59
 ============================================================
                time =  2.20000E-02
   current step size =  5.00000E-04
 Iteration:   1     *|du|/|u| =  2.4283548E-02     *Ei/E0 =  3.7260338E-01
 DIVERGENCE (increasing translational residual norm) detected:
   current norm   4.516E+01 exceeds prior maximum   6.168E+00

 automatically REFORMING stiffness matrix...
 Iteration:   2     *|du|/|u| =  2.9067052E-03     *Ei/E0 =  1.5600030E-02
 Iteration:   3     *|du|/|u| =  7.0785435E-04     *Ei/E0 =  5.7896200E-04

 Equilibrium iterations summary step     44 t= 2.2000E-02      11/21/19 09:30:00
    Number of iterations to converge         =           3
    Number of stiffness reformations         =           1
    Number of right hand side evaluations    =           5

 Convergence detected as a combination of
     1. Ratio of euclidian displacement translational norms          
        Value =   7.0785E-04 vs Tolerance =   1.0000E-03
     2. Ratio of euclidian energy       translational norms          
        Value =   5.7896E-04 vs Tolerance =   1.0000E-02
     335 t 2.2000E-02 dt 5.00E-04 write d3plot file            11/21/19 09:30:00

 BEGIN implicit statics  step     45 t= 2.2500E-02             11/21/19 09:30:00
 ============================================================
                time =  2.25000E-02
   current step size =  5.00000E-04
 Iteration:   1     *|du|/|u| =  2.2797296E-02     *Ei/E0 =  3.5687803E-01
 DIVERGENCE (increasing translational residual norm) detected:
   current norm   4.243E+01 exceeds prior maximum   6.146E+00

 automatically REFORMING stiffness matrix...
 Iteration:   2     *|du|/|u| =  2.6730859E-03     *Ei/E0 =  1.3959602E-02
 Iteration:   3     *|du|/|u| =  6.2686816E-04     *Ei/E0 =  4.9531431E-04

 Equilibrium iterations summary step     45 t= 2.2500E-02      11/21/19 09:30:01
    Number of iterations to converge         =           3
    Number of stiffness reformations         =           1
    Number of right hand side evaluations    =           5

 Convergence detected as a combination of
     1. Ratio of euclidian displacement translational norms          
        Value =   6.2687E-04 vs Tolerance =   1.0000E-03
     2. Ratio of euclidian energy       translational norms          
        Value =   4.9531E-04 vs Tolerance =   1.0000E-02
     341 t 2.2500E-02 dt 5.00E-04 write d3plot file            11/21/19 09:30:01

 BEGIN implicit statics  step     46 t= 2.3000E-02             11/21/19 09:30:01
 ============================================================
                time =  2.30000E-02
   current step size =  5.00000E-04
 Iteration:   1     *|du|/|u| =  2.1447900E-02     *Ei/E0 =  3.4193659E-01
 DIVERGENCE (increasing translational residual norm) detected:
   current norm   3.986E+01 exceeds prior maximum   6.072E+00

 automatically REFORMING stiffness matrix...
 Iteration:   2     *|du|/|u| =  2.4656120E-03     *Ei/E0 =  1.2509678E-02
 Iteration:   3     *|du|/|u| =  5.5682300E-04     *Ei/E0 =  4.2267038E-04

 Equilibrium iterations summary step     46 t= 2.3000E-02      11/21/19 09:30:02
    Number of iterations to converge         =           3
    Number of stiffness reformations         =           1
    Number of right hand side evaluations    =           5

 Convergence detected as a combination of
     1. Ratio of euclidian displacement translational norms          
        Value =   5.5682E-04 vs Tolerance =   1.0000E-03
     2. Ratio of euclidian energy       translational norms          
        Value =   4.2267E-04 vs Tolerance =   1.0000E-02
     347 t 2.3000E-02 dt 5.00E-04 write d3plot file            11/21/19 09:30:02

 BEGIN implicit statics  step     47 t= 2.3500E-02             11/21/19 09:30:02
 ============================================================
                time =  2.35000E-02
   current step size =  5.00000E-04
 Iteration:   1     *|du|/|u| =  2.0219745E-02     *Ei/E0 =  3.2777385E-01
 DIVERGENCE (increasing translational residual norm) detected:
   current norm   3.749E+01 exceeds prior maximum   6.005E+00

 automatically REFORMING stiffness matrix...
 Iteration:   2     *|du|/|u| =  2.2794200E-03     *Ei/E0 =  1.1232644E-02
 Iteration:   3     *|du|/|u| =  4.9645022E-04     *Ei/E0 =  3.6266165E-04

 Equilibrium iterations summary step     47 t= 2.3500E-02      11/21/19 09:30:03
    Number of iterations to converge         =           3
    Number of stiffness reformations         =           1
    Number of right hand side evaluations    =           5

 Convergence detected as a combination of
     1. Ratio of euclidian displacement translational norms          
        Value =   4.9645E-04 vs Tolerance =   1.0000E-03
     2. Ratio of euclidian energy       translational norms          
        Value =   3.6266E-04 vs Tolerance =   1.0000E-02
     353 t 2.3500E-02 dt 5.00E-04 write d3plot file            11/21/19 09:30:04

 BEGIN implicit statics  step     48 t= 2.4000E-02             11/21/19 09:30:04
 ============================================================
                time =  2.40000E-02
   current step size =  5.00000E-04
 Iteration:   1     *|du|/|u| =  1.9099127E-02     *Ei/E0 =  3.1436535E-01
 DIVERGENCE (increasing translational residual norm) detected:
   current norm   3.529E+01 exceeds prior maximum   5.950E+00

 automatically REFORMING stiffness matrix...
 Iteration:   2     *|du|/|u| =  2.1117045E-03     *Ei/E0 =  1.0106908E-02
 Iteration:   3     *|du|/|u| =  4.4421268E-04     *Ei/E0 =  3.1302228E-04

 Equilibrium iterations summary step     48 t= 2.4000E-02      11/21/19 09:30:05
    Number of iterations to converge         =           3
    Number of stiffness reformations         =           1
    Number of right hand side evaluations    =           5

 Convergence detected as a combination of
     1. Ratio of euclidian displacement translational norms          
        Value =   4.4421E-04 vs Tolerance =   1.0000E-03
     2. Ratio of euclidian energy       translational norms          
        Value =   3.1302E-04 vs Tolerance =   1.0000E-02
     359 t 2.4000E-02 dt 5.00E-04 write d3plot file            11/21/19 09:30:05

 BEGIN implicit statics  step     49 t= 2.4500E-02             11/21/19 09:30:05
 ============================================================
                time =  2.45000E-02
   current step size =  5.00000E-04
 Iteration:   1     *|du|/|u| =  1.8074121E-02     *Ei/E0 =  3.0168224E-01
 DIVERGENCE (increasing translational residual norm) detected:
   current norm   3.325E+01 exceeds prior maximum   5.905E+00

 automatically REFORMING stiffness matrix...
 Iteration:   2     *|du|/|u| =  1.9602196E-03     *Ei/E0 =  9.1133667E-03
 Iteration:   3     *|du|/|u| =  3.9883137E-04     *Ei/E0 =  2.7173208E-04

 Equilibrium iterations summary step     49 t= 2.4500E-02      11/21/19 09:30:06
    Number of iterations to converge         =           3
    Number of stiffness reformations         =           1
    Number of right hand side evaluations    =           5

 Convergence detected as a combination of
     1. Ratio of euclidian displacement translational norms          
        Value =   3.9883E-04 vs Tolerance =   1.0000E-03
     2. Ratio of euclidian energy       translational norms          
        Value =   2.7173E-04 vs Tolerance =   1.0000E-02
     365 t 2.4500E-02 dt 5.00E-04 write d3plot file            11/21/19 09:30:06

 BEGIN implicit statics  step     50 t= 2.5000E-02             11/21/19 09:30:06
 ============================================================
                time =  2.50000E-02
   current step size =  5.00000E-04
 Iteration:   1     *|du|/|u| =  1.7134301E-02     *Ei/E0 =  2.8969170E-01
 DIVERGENCE (increasing translational residual norm) detected:
   current norm   3.137E+01 exceeds prior maximum   5.867E+00

 automatically REFORMING stiffness matrix...
 Iteration:   2     *|du|/|u| =  1.8230666E-03     *Ei/E0 =  8.2353673E-03
 Iteration:   3     *|du|/|u| =  3.5926247E-04     *Ei/E0 =  2.3720730E-04

 Equilibrium iterations summary step     50 t= 2.5000E-02      11/21/19 09:30:07
    Number of iterations to converge         =           3
    Number of stiffness reformations         =           1
    Number of right hand side evaluations    =           5

 Convergence detected as a combination of
     1. Ratio of euclidian displacement translational norms          
        Value =   3.5926E-04 vs Tolerance =   1.0000E-03
     2. Ratio of euclidian energy       translational norms          
        Value =   2.3721E-04 vs Tolerance =   1.0000E-02
     371 t 2.5000E-02 dt 5.00E-04 write d3plot file            11/21/19 09:30:07

 BEGIN implicit statics  step     51 t= 2.5500E-02             11/21/19 09:30:07
 ============================================================
                time =  2.55000E-02
   current step size =  5.00000E-04
 Iteration:   1     *|du|/|u| =  1.6270553E-02     *Ei/E0 =  2.7835907E-01
 DIVERGENCE (increasing translational residual norm) detected:
   current norm   2.962E+01 exceeds prior maximum   5.837E+00

 automatically REFORMING stiffness matrix...
 Iteration:   2     *|du|/|u| =  1.6986205E-03     *Ei/E0 =  7.4584218E-03
 Iteration:   3     *|du|/|u| =  3.2464801E-04     *Ei/E0 =  2.0820795E-04

 Equilibrium iterations summary step     51 t= 2.5500E-02      11/21/19 09:30:09
    Number of iterations to converge         =           3
    Number of stiffness reformations         =           1
    Number of right hand side evaluations    =           5

 Convergence detected as a combination of
     1. Ratio of euclidian displacement translational norms          
        Value =   3.2465E-04 vs Tolerance =   1.0000E-03
     2. Ratio of euclidian energy       translational norms          
        Value =   2.0821E-04 vs Tolerance =   1.0000E-02
     377 t 2.5500E-02 dt 5.00E-04 write d3plot file            11/21/19 09:30:09

 BEGIN implicit statics  step     52 t= 2.6000E-02             11/21/19 09:30:09
 ============================================================
                time =  2.60000E-02
   current step size =  5.00000E-04
 Iteration:   1     *|du|/|u| =  1.5474909E-02     *Ei/E0 =  2.6764930E-01
 DIVERGENCE (increasing translational residual norm) detected:
   current norm   2.800E+01 exceeds prior maximum   5.811E+00

 automatically REFORMING stiffness matrix...
 Iteration:   2     *|du|/|u| =  1.5854808E-03     *Ei/E0 =  6.7699427E-03
 Iteration:   3     *|du|/|u| =  2.9427725E-04     *Ei/E0 =  1.8375379E-04

 Equilibrium iterations summary step     52 t= 2.6000E-02      11/21/19 09:30:10
    Number of iterations to converge         =           3
    Number of stiffness reformations         =           1
    Number of right hand side evaluations    =           5

 Convergence detected as a combination of
     1. Ratio of euclidian displacement translational norms          
        Value =   2.9428E-04 vs Tolerance =   1.0000E-03
     2. Ratio of euclidian energy       translational norms          
        Value =   1.8375E-04 vs Tolerance =   1.0000E-02
     383 t 2.6000E-02 dt 5.00E-04 write d3plot file            11/21/19 09:30:10

 BEGIN implicit statics  step     53 t= 2.6500E-02             11/21/19 09:30:10
 ============================================================
                time =  2.65000E-02
   current step size =  5.00000E-04
 Iteration:   1     *|du|/|u| =  1.4740396E-02     *Ei/E0 =  2.5752785E-01
 DIVERGENCE (increasing translational residual norm) detected:
   current norm   2.650E+01 exceeds prior maximum   5.791E+00

 automatically REFORMING stiffness matrix...
 Iteration:   2     *|du|/|u| =  1.4824354E-03     *Ei/E0 =  6.1590044E-03
 Iteration:   3     *|du|/|u| =  2.6755769E-04     *Ei/E0 =  1.6306287E-04

 Equilibrium iterations summary step     53 t= 2.6500E-02      11/21/19 09:30:11
    Number of iterations to converge         =           3
    Number of stiffness reformations         =           1
    Number of right hand side evaluations    =           5

 Convergence detected as a combination of
     1. Ratio of euclidian displacement translational norms          
        Value =   2.6756E-04 vs Tolerance =   1.0000E-03
     2. Ratio of euclidian energy       translational norms          
        Value =   1.6306E-04 vs Tolerance =   1.0000E-02
     389 t 2.6500E-02 dt 5.00E-04 write d3plot file            11/21/19 09:30:11

 BEGIN implicit statics  step     54 t= 2.7000E-02             11/21/19 09:30:11
 ============================================================
                time =  2.70000E-02
   current step size =  5.00000E-04
 Iteration:   1     *|du|/|u| =  1.4060899E-02     *Ei/E0 =  2.4796134E-01
 DIVERGENCE (increasing translational residual norm) detected:
   current norm   2.511E+01 exceeds prior maximum   5.774E+00

 automatically REFORMING stiffness matrix...
 Iteration:   2     *|du|/|u| =  1.3884298E-03     *Ei/E0 =  5.6161309E-03
 Iteration:   3     *|du|/|u| =  2.4399272E-04     *Ei/E0 =  1.4550676E-04

 Equilibrium iterations summary step     54 t= 2.7000E-02      11/21/19 09:30:12
    Number of iterations to converge         =           3
    Number of stiffness reformations         =           1
    Number of right hand side evaluations    =           5

 Convergence detected as a combination of
     1. Ratio of euclidian displacement translational norms          
        Value =   2.4399E-04 vs Tolerance =   1.0000E-03
     2. Ratio of euclidian energy       translational norms          
        Value =   1.4551E-04 vs Tolerance =   1.0000E-02
     395 t 2.7000E-02 dt 5.00E-04 write d3plot file            11/21/19 09:30:13

 BEGIN implicit statics  step     55 t= 2.7500E-02             11/21/19 09:30:13
 ============================================================
                time =  2.75000E-02
   current step size =  5.00000E-04
 Iteration:   1     *|du|/|u| =  1.3431045E-02     *Ei/E0 =  2.3891783E-01
 DIVERGENCE (increasing translational residual norm) detected:
   current norm   2.381E+01 exceeds prior maximum   5.760E+00

 automatically REFORMING stiffness matrix...
 Iteration:   2     *|du|/|u| =  1.3025442E-03     *Ei/E0 =  5.1331052E-03
 Iteration:   3     *|du|/|u| =  2.2316422E-04     *Ei/E0 =  1.3057717E-04

 Equilibrium iterations summary step     55 t= 2.7500E-02      11/21/19 09:30:14
    Number of iterations to converge         =           3
    Number of stiffness reformations         =           1
    Number of right hand side evaluations    =           5

 Convergence detected as a combination of
     1. Ratio of euclidian displacement translational norms          
        Value =   2.2316E-04 vs Tolerance =   1.0000E-03
     2. Ratio of euclidian energy       translational norms          
        Value =   1.3058E-04 vs Tolerance =   1.0000E-02
     401 t 2.7500E-02 dt 5.00E-04 write d3plot file            11/21/19 09:30:14

 BEGIN implicit statics  step     56 t= 2.8000E-02             11/21/19 09:30:14
 ============================================================
                time =  2.80000E-02
   current step size =  5.00000E-04
 Iteration:   1     *|du|/|u| =  1.2846103E-02     *Ei/E0 =  2.3036703E-01
 DIVERGENCE (increasing translational residual norm) detected:
   current norm   2.261E+01 exceeds prior maximum   5.749E+00

 automatically REFORMING stiffness matrix...
 Iteration:   2     *|du|/|u| =  1.2239731E-03     *Ei/E0 =  4.7028012E-03
 Iteration:   3     *|du|/|u| =  2.0471871E-04     *Ei/E0 =  1.1786080E-04

 Equilibrium iterations summary step     56 t= 2.8000E-02      11/21/19 09:30:15
    Number of iterations to converge         =           3
    Number of stiffness reformations         =           1
    Number of right hand side evaluations    =           5

 Convergence detected as a combination of
     1. Ratio of euclidian displacement translational norms          
        Value =   2.0472E-04 vs Tolerance =   1.0000E-03
     2. Ratio of euclidian energy       translational norms          
        Value =   1.1786E-04 vs Tolerance =   1.0000E-02
     407 t 2.8000E-02 dt 5.00E-04 write d3plot file            11/21/19 09:30:15

 BEGIN implicit statics  step     57 t= 2.8500E-02             11/21/19 09:30:15
[...]

 automatically REFORMING stiffness matrix...
 Iteration:   2     *|du|/|u| =  6.0934075E-04     *Ei/E0 =  3.2654703E-03

 Equilibrium iterations summary step     87 t= 4.3500E-02      11/21/19 09:30:48
    Number of iterations to converge         =           2
    Number of stiffness reformations         =           1
    Number of right hand side evaluations    =           4

 Convergence detected as a combination of
     1. Ratio of euclidian displacement translational norms          
        Value =   6.0934E-04 vs Tolerance =   1.0000E-03
     2. Ratio of euclidian energy       translational norms          
        Value =   3.2655E-03 vs Tolerance =   1.0000E-02
     565 t 4.3500E-02 dt 5.00E-04 write d3plot file            11/21/19 09:30:48

 BEGIN implicit statics  step     88 t= 4.4000E-02             11/21/19 09:30:48
 ============================================================
                time =  4.40000E-02
   current step size =  5.00000E-04
 Iteration:   1     *|du|/|u| =  5.3410700E-03     *Ei/E0 =  1.2961909E-01
 DIVERGENCE (increasing translational residual norm) detected:
   current norm   1.271E+01 exceeds prior maximum   6.928E+00

 automatically REFORMING stiffness matrix...
 Iteration:   2     *|du|/|u| =  7.0555532E-04     *Ei/E0 =  5.7426632E-03

 Equilibrium iterations summary step     88 t= 4.4000E-02      11/21/19 09:30:49
    Number of iterations to converge         =           2
    Number of stiffness reformations         =           1
    Number of right hand side evaluations    =           4

 Convergence detected as a combination of
     1. Ratio of euclidian displacement translational norms          
        Value =   7.0556E-04 vs Tolerance =   1.0000E-03
     2. Ratio of euclidian energy       translational norms          
        Value =   5.7427E-03 vs Tolerance =   1.0000E-02
     570 t 4.4000E-02 dt 5.00E-04 write d3plot file            11/21/19 09:30:49

 BEGIN implicit statics  step     89 t= 4.4500E-02             11/21/19 09:30:49
 ============================================================
                time =  4.45000E-02
   current step size =  5.00000E-04
 Iteration:   1     *|du|/|u| =  5.4014803E-03     *Ei/E0 =  1.3735112E-01
 DIVERGENCE (increasing translational residual norm) detected:
   current norm   1.027E+01 exceeds prior maximum   7.167E+00

 automatically REFORMING stiffness matrix...
 Iteration:   2     *|du|/|u| =  7.0117257E-04     *Ei/E0 =  4.4093580E-03

 Equilibrium iterations summary step     89 t= 4.4500E-02      11/21/19 09:30:50
    Number of iterations to converge         =           2
    Number of stiffness reformations         =           1
    Number of right hand side evaluations    =           4

 Convergence detected as a combination of
     1. Ratio of euclidian displacement translational norms          
        Value =   7.0117E-04 vs Tolerance =   1.0000E-03
     2. Ratio of euclidian energy       translational norms          
        Value =   4.4094E-03 vs Tolerance =   1.0000E-02
     575 t 4.4500E-02 dt 5.00E-04 write d3plot file            11/21/19 09:30:50

 BEGIN implicit statics  step     90 t= 4.5000E-02             11/21/19 09:30:50
 ============================================================
                time =  4.50000E-02
   current step size =  5.00000E-04
 Iteration:   1     *|du|/|u| =  5.3736546E-03     *Ei/E0 =  1.3929163E-01
 DIVERGENCE (increasing translational residual norm) detected:
   current norm   1.000E+01 exceeds prior maximum   7.055E+00

 automatically REFORMING stiffness matrix...
 Iteration:   2     *|du|/|u| =  7.2191303E-04     *Ei/E0 =  4.6920474E-03

 Equilibrium iterations summary step     90 t= 4.5000E-02      11/21/19 09:30:51
    Number of iterations to converge         =           2
    Number of stiffness reformations         =           1
    Number of right hand side evaluations    =           4

 Convergence detected as a combination of
     1. Ratio of euclidian displacement translational norms          
        Value =   7.2191E-04 vs Tolerance =   1.0000E-03
     2. Ratio of euclidian energy       translational norms          
        Value =   4.6920E-03 vs Tolerance =   1.0000E-02
     580 t 4.5000E-02 dt 5.00E-04 write d3plot file            11/21/19 09:30:51

 BEGIN implicit statics  step     91 t= 4.5500E-02             11/21/19 09:30:51
 ============================================================
                time =  4.55000E-02
   current step size =  5.00000E-04
 Iteration:   1     *|du|/|u| =  5.3601222E-03     *Ei/E0 =  1.4309209E-01
 DIVERGENCE (increasing translational residual norm) detected:
   current norm   1.148E+01 exceeds prior maximum   7.133E+00

 automatically REFORMING stiffness matrix...
 Iteration:   2     *|du|/|u| =  8.0063184E-04     *Ei/E0 =  6.6002346E-03

 Equilibrium iterations summary step     91 t= 4.5500E-02      11/21/19 09:30:52
    Number of iterations to converge         =           2
    Number of stiffness reformations         =           1
    Number of right hand side evaluations    =           4

 Convergence detected as a combination of
     1. Ratio of euclidian displacement translational norms          
        Value =   8.0063E-04 vs Tolerance =   1.0000E-03
     2. Ratio of euclidian energy       translational norms          
        Value =   6.6002E-03 vs Tolerance =   1.0000E-02
     585 t 4.5500E-02 dt 5.00E-04 write d3plot file            11/21/19 09:30:53

 BEGIN implicit statics  step     92 t= 4.6000E-02             11/21/19 09:30:53
 ============================================================
                time =  4.60000E-02
   current step size =  5.00000E-04
 Iteration:   1     *|du|/|u| =  5.4143161E-03     *Ei/E0 =  1.5295140E-01
 DIVERGENCE (increasing translational residual norm) detected:
   current norm   1.307E+01 exceeds prior maximum   7.352E+00

 automatically REFORMING stiffness matrix...
 Iteration:   2     *|du|/|u| =  1.0165931E-03     *Ei/E0 =  1.0482264E-02
 Iteration:   3     *|du|/|u| =  3.2353662E-04     *Ei/E0 =  1.4298139E-03

 Equilibrium iterations summary step     92 t= 4.6000E-02      11/21/19 09:30:54
    Number of iterations to converge         =           3
    Number of stiffness reformations         =           1
    Number of right hand side evaluations    =           5

 Convergence detected as a combination of
     1. Ratio of euclidian displacement translational norms          
        Value =   3.2354E-04 vs Tolerance =   1.0000E-03
     2. Ratio of euclidian energy       translational norms          
        Value =   1.4298E-03 vs Tolerance =   1.0000E-02
     591 t 4.6000E-02 dt 5.00E-04 write d3plot file            11/21/19 09:30:54

 BEGIN implicit statics  step     93 t= 4.6500E-02             11/21/19 09:30:54
 ============================================================
                time =  4.65000E-02
   current step size =  5.00000E-04
 Iteration:   1     *|du|/|u| =  5.4088007E-03     *Ei/E0 =  1.5098244E-01
 DIVERGENCE (increasing translational residual norm) detected:
   current norm   1.078E+01 exceeds prior maximum   6.038E+00

 automatically REFORMING stiffness matrix...
 Iteration:   2     *|du|/|u| =  9.3510910E-04     *Ei/E0 =  7.4821715E-03

 Equilibrium iterations summary step     93 t= 4.6500E-02      11/21/19 09:30:55
    Number of iterations to converge         =           2
    Number of stiffness reformations         =           1
    Number of right hand side evaluations    =           4

 Convergence detected as a combination of
     1. Ratio of euclidian displacement translational norms          
        Value =   9.3511E-04 vs Tolerance =   1.0000E-03
     2. Ratio of euclidian energy       translational norms          
        Value =   7.4822E-03 vs Tolerance =   1.0000E-02
     596 t 4.6500E-02 dt 5.00E-04 write d3plot file            11/21/19 09:30:55

 BEGIN implicit statics  step     94 t= 4.7000E-02             11/21/19 09:30:55
 ============================================================
                time =  4.70000E-02
   current step size =  5.00000E-04
 Iteration:   1     *|du|/|u| =  5.6744120E-03     *Ei/E0 =  1.7345574E-01
 DIVERGENCE (increasing translational residual norm) detected:
   current norm   1.491E+01 exceeds prior maximum   7.413E+00

 automatically REFORMING stiffness matrix...
 Iteration:   2     *|du|/|u| =  1.2937339E-03     *Ei/E0 =  1.8576619E-02
 Iteration:   3     *|du|/|u| =  8.2831373E-04     *Ei/E0 =  7.1528872E-03

 Equilibrium iterations summary step     94 t= 4.7000E-02      11/21/19 09:30:56
    Number of iterations to converge         =           3
    Number of stiffness reformations         =           1
    Number of right hand side evaluations    =           5

 Convergence detected as a combination of
     1. Ratio of euclidian displacement translational norms          
        Value =   8.2831E-04 vs Tolerance =   1.0000E-03
     2. Ratio of euclidian energy       translational norms          
        Value =   7.1529E-03 vs Tolerance =   1.0000E-02
     602 t 4.7000E-02 dt 5.00E-04 write d3plot file            11/21/19 09:30:57

 BEGIN implicit statics  step     95 t= 4.7500E-02             11/21/19 09:30:57
 ============================================================
                time =  4.75000E-02
   current step size =  5.00000E-04
 Iteration:   1     *|du|/|u| =  5.8624039E-03     *Ei/E0 =  1.8622364E-01
 DIVERGENCE (increasing translational residual norm) detected:
   current norm   1.459E+01 exceeds prior maximum   6.195E+00

 automatically REFORMING stiffness matrix...
 Iteration:   2     *|du|/|u| =  1.5961704E-03     *Ei/E0 =  2.1633634E-02
 Iteration:   3     *|du|/|u| =  1.0217236E-03     *Ei/E0 =  7.4521650E-03
 Iteration:   4     *|du|/|u| =  1.4024222E-04     *Ei/E0 =  4.0122348E-04

 Equilibrium iterations summary step     95 t= 4.7500E-02      11/21/19 09:30:58
    Number of iterations to converge         =           4
    Number of stiffness reformations         =           1
    Number of right hand side evaluations    =           6

 Convergence detected as a combination of
     1. Ratio of euclidian displacement translational norms          
        Value =   1.4024E-04 vs Tolerance =   1.0000E-03
     2. Ratio of euclidian energy       translational norms          
        Value =   4.0122E-04 vs Tolerance =   1.0000E-02
     609 t 4.7500E-02 dt 5.00E-04 write d3plot file            11/21/19 09:30:58

 BEGIN implicit statics  step     96 t= 4.8000E-02             11/21/19 09:30:58
 ============================================================
                time =  4.80000E-02
   current step size =  5.00000E-04
 Iteration:   1     *|du|/|u| =  6.3278492E-03     *Ei/E0 =  2.1152841E-01
 DIVERGENCE (increasing translational residual norm) detected:
   current norm   1.496E+01 exceeds prior maximum   5.730E+00

 automatically REFORMING stiffness matrix...
 Iteration:   2     *|du|/|u| =  1.9902468E-03     *Ei/E0 =  2.8988744E-02
 Iteration:   3     *|du|/|u| =  1.5665299E-03     *Ei/E0 =  1.2891811E-02
 Iteration:   4     *|du|/|u| =  2.3866820E-04     *Ei/E0 =  8.3359595E-04

 Equilibrium iterations summary step     96 t= 4.8000E-02      11/21/19 09:30:59
    Number of iterations to converge         =           4
    Number of stiffness reformations         =           1
    Number of right hand side evaluations    =           6

 Convergence detected as a combination of
     1. Ratio of euclidian displacement translational norms          
        Value =   2.3867E-04 vs Tolerance =   1.0000E-03
     2. Ratio of euclidian energy       translational norms          
        Value =   8.3360E-04 vs Tolerance =   1.0000E-02
     616 t 4.8000E-02 dt 5.00E-04 write d3plot file            11/21/19 09:31:00

 BEGIN implicit statics  step     97 t= 4.8500E-02             11/21/19 09:31:00
 ============================================================
                time =  4.85000E-02
   current step size =  5.00000E-04
 Iteration:   1     *|du|/|u| =  6.8128420E-03     *Ei/E0 =  2.4061561E-01
 DIVERGENCE (increasing translational residual norm) detected:
   current norm   1.434E+01 exceeds prior maximum   5.727E+00

 automatically REFORMING stiffness matrix...
 Iteration:   2     *|du|/|u| =  2.5592145E-03     *Ei/E0 =  4.3389860E-02
 Iteration:   3     *|du|/|u| =  2.4985004E-03     *Ei/E0 =  2.5118814E-02
 Iteration:   4     *|du|/|u| =  3.9014933E-04     *Ei/E0 =  1.7290968E-03

 Equilibrium iterations summary step     97 t= 4.8500E-02      11/21/19 09:31:01
    Number of iterations to converge         =           4
    Number of stiffness reformations         =           1
    Number of right hand side evaluations    =           6

 Convergence detected as a combination of
     1. Ratio of euclidian displacement translational norms          
        Value =   3.9015E-04 vs Tolerance =   1.0000E-03
     2. Ratio of euclidian energy       translational norms          
        Value =   1.7291E-03 vs Tolerance =   1.0000E-02
     623 t 4.8500E-02 dt 5.00E-04 write d3plot file            11/21/19 09:31:01

 BEGIN implicit statics  step     98 t= 4.9000E-02             11/21/19 09:31:01
 ============================================================
                time =  4.90000E-02
   current step size =  5.00000E-04
 Iteration:   1     *|du|/|u| =  7.2380672E-03     *Ei/E0 =  2.6759720E-01
 DIVERGENCE (increasing translational residual norm) detected:
   current norm   1.200E+01 exceeds prior maximum   5.811E+00

 automatically REFORMING stiffness matrix...
 Iteration:   2     *|du|/|u| =  3.1527852E-03     *Ei/E0 =  6.0764921E-02
 Iteration:   3     *|du|/|u| =  3.6641061E-03     *Ei/E0 =  4.3155826E-02
 Iteration:   4     *|du|/|u| =  4.9704208E-04     *Ei/E0 =  2.5748501E-03

 Equilibrium iterations summary step     98 t= 4.9000E-02      11/21/19 09:31:02
    Number of iterations to converge         =           4
    Number of stiffness reformations         =           1
    Number of right hand side evaluations    =           6

 Convergence detected as a combination of
     1. Ratio of euclidian displacement translational norms          
        Value =   4.9704E-04 vs Tolerance =   1.0000E-03
     2. Ratio of euclidian energy       translational norms          
        Value =   2.5749E-03 vs Tolerance =   1.0000E-02
     630 t 4.9000E-02 dt 5.00E-04 write d3plot file            11/21/19 09:31:03

 BEGIN implicit statics  step     99 t= 4.9500E-02             11/21/19 09:31:03
 ============================================================
                time =  4.95000E-02
   current step size =  5.00000E-04
 Iteration:   1     *|du|/|u| =  7.4828079E-03     *Ei/E0 =  2.8681897E-01
 DIVERGENCE (increasing translational residual norm) detected:
   current norm   9.125E+00 exceeds prior maximum   5.980E+00

 automatically REFORMING stiffness matrix...
 Iteration:   2     *|du|/|u| =  3.6589676E-03     *Ei/E0 =  7.8253202E-02
 Iteration:   3     *|du|/|u| =  4.8902935E-03     *Ei/E0 =  6.5375955E-02
 Iteration:   4     *|du|/|u| =  5.2782561E-04     *Ei/E0 =  2.9722180E-03

 Equilibrium iterations summary step     99 t= 4.9500E-02      11/21/19 09:31:04
    Number of iterations to converge         =           4
    Number of stiffness reformations         =           1
    Number of right hand side evaluations    =           6

 Convergence detected as a combination of
     1. Ratio of euclidian displacement translational norms          
        Value =   5.2783E-04 vs Tolerance =   1.0000E-03
     2. Ratio of euclidian energy       translational norms          
        Value =   2.9722E-03 vs Tolerance =   1.0000E-02
     637 t 4.9500E-02 dt 5.00E-04 write d3plot file            11/21/19 09:31:04

 BEGIN implicit statics  step    100 t= 5.0000E-02             11/21/19 09:31:04
 ============================================================
                time =  5.00000E-02
   current step size =  5.00000E-04
 Iteration:   1     *|du|/|u| =  7.5872277E-03     *Ei/E0 =  2.9992634E-01
 DIVERGENCE (increasing translational residual norm) detected:
   current norm   7.078E+00 exceeds prior maximum   6.135E+00

 automatically REFORMING stiffness matrix...
 Iteration:   2     *|du|/|u| =  4.0451461E-03     *Ei/E0 =  9.4039778E-02
 Iteration:   3     *|du|/|u| =  6.0572745E-03     *Ei/E0 =  8.9909196E-02
 Iteration:   4     *|du|/|u| =  5.1511869E-04     *Ei/E0 =  3.0247155E-03

 Equilibrium iterations summary step    100 t= 5.0000E-02      11/21/19 09:31:06
    Number of iterations to converge         =           4
    Number of stiffness reformations         =           1
    Number of right hand side evaluations    =           6

 Convergence detected as a combination of
     1. Ratio of euclidian displacement translational norms          
        Value =   5.1512E-04 vs Tolerance =   1.0000E-03
     2. Ratio of euclidian energy       translational norms          
        Value =   3.0247E-03 vs Tolerance =   1.0000E-02
     644 t 5.0000E-02 dt 5.00E-04 write d3plot file            11/21/19 09:31:06
 
 *** termination time reached ***
     644 t 5.0000E-02 dt 5.00E-04 write d3dump01 file          11/21/19 09:31:06

 N o r m a l    t e r m i n a t i o n                          11/21/19 09:31:06
 
 Memory reqd for implicit solution: max used        20000000
 Memory reqd for implicit solution: incore          20000001
 Memory reqd for implicit solution: oocore            115036

 T i m i n g   i n f o r m a t i o n
                        CPU(seconds)   %CPU  Clock(seconds) %Clock
  ----------------------------------------------------------------
  Keyword Processing ... 3.1337E-01    0.35     3.2290E-01    0.30
    KW Reading ......... 5.3617E-02    0.06     5.0660E-02    0.05
    KW Writing ......... 2.8514E-03    0.00     4.9150E-02    0.05
  Initialization ....... 7.1683E-01    0.79     1.2828E+00    1.20
    Init Proc Phase 1 .. 3.8413E-01    0.42     6.1810E-01    0.58
    Init Proc Phase 2 .. 5.6204E-02    0.06     2.9009E-01    0.27
  Init solver .......... 3.9065E-02    0.04     3.8865E-02    0.04
  Element processing ... 2.9691E-01    0.33     1.5705E-01    0.15
    Shells ............. 2.0143E-01    0.22     1.3031E-01    0.12
  Binary databases ..... 9.1166E-02    0.10     6.7102E-02    0.06
  ASCII database ....... 1.8149E-02    0.02     8.6070E-03    0.01
  Contact algorithm .... 7.6531E-03    0.01     3.8560E-03    0.00
  Rigid Bodies ......... 7.0265E-03    0.01     2.8390E-03    0.00
  Implicit ............. 6.5554E+01   72.44     8.1125E+01   75.63
  Implicit Lin. Alg. ... 2.2838E+01   25.24     2.3703E+01   22.10
    Imp. LA Mtx Assemb . 3.3030E-01    0.37     2.1683E-01    0.20
    Imp. LA Factor ..... 3.4289E-01    0.38     2.2477E-01    0.21
    Imp. LA Solve ...... 2.2158E+01   24.49     2.3258E+01   21.68
  Time step size ....... 3.0285E-03    0.00     2.8340E-03    0.00
  Group force file ..... 2.2868E-02    0.03     1.8609E-02    0.02
  Others ............... 3.6955E-02    0.04     1.5356E-02    0.01
  Misc. 1 .............. 3.6313E-01    0.40     3.5124E-01    0.33
  Misc. 3 .............. 9.3759E-02    0.10     8.7221E-02    0.08
  Misc. 4 .............. 8.7974E-02    0.10     7.9799E-02    0.07
  ----------------------------------------------------------------
  T o t a l s            9.0490E+01  100.00     1.0727E+02  100.00

 Problem time       =    5.0000E-02
 Problem cycle      =       644
 Total CPU time     =        90 seconds (   0 hours  1 minutes 30 seconds)
 CPU time per zone cycle  =   12628490.753 nanoseconds
 Clock time per zone cycle=   14915614.342 nanoseconds

 Number of CPU's    2
 NLQ used/max     192/  192
 Start time   11/21/2019 09:29:19  
 End time     11/21/2019 09:31:06  
 Elapsed time     107 seconds for     644 cycles using  2 SMP threads
             (      0 hour   1 minute  47 seconds)

 N o r m a l    t e r m i n a t i o n                          11/21/19 09:31:06
