Curveplot
LS-DYNA keyword deck by LS-PrePost
Time
Yield Value (eps)
Element id
Sh-314 (ip=1) #pts=21
* Minval=     0.0000000000e+00 at time=         0.0000000000
* Maxval=     1.3687001169e-01 at time=         0.0099999998
    0.0000000000e+00    0.0000000000e+00
    5.0000002375e-04    5.9663001448e-03
    1.0000000475e-03    1.5796000138e-02
    1.5000000130e-03    2.4997003376e-02
    2.0000000950e-03    3.2519001514e-02
    2.4999999441e-03    3.9452001452e-02
    3.0000000261e-03    4.6189002693e-02
    3.5000001080e-03    5.2890002728e-02
    4.0000001900e-03    5.9565003961e-02
    4.4999998063e-03    6.6209003329e-02
    4.9999998882e-03    7.2821006179e-02
    5.4999999702e-03    7.9398006201e-02
    6.0000000522e-03    8.5937008262e-02
    6.5000001341e-03    9.2438004911e-02
    7.0000002161e-03    9.8900012672e-02
    7.4999998324e-03    1.0531999916e-01
    8.0000003800e-03    1.1171000451e-01
    8.5000004619e-03    1.1806000769e-01
    8.9999996126e-03    1.2437000126e-01
    9.4999996945e-03    1.3064000010e-01
    9.9999997765e-03    1.3687001169e-01
endcurve
