Curveplot
LS-DYNA keyword deck by LS-PrePost
Time
Effective Stress (v-m)
Element id
Sh-314 (ip=1) #pts=21
* Minval=     0.0000000000e+00 at time=         0.0000000000
* Maxval=     3.8751736450e+02 at time=         0.0099999998
    0.0000000000e+00    0.0000000000e+00
    5.0000002375e-04    2.5563955688e+02
    1.0000000475e-03    2.6586056519e+02
    1.5000000130e-03    2.7510913086e+02
    2.0000000950e-03    2.8266702271e+02
    2.4999999441e-03    2.8962814331e+02
    3.0000000261e-03    2.9639782715e+02
    3.5000001080e-03    3.0313650513e+02
    4.0000001900e-03    3.0984161377e+02
    4.4999998063e-03    3.1652075195e+02
    4.9999998882e-03    3.2316229248e+02
    5.4999999702e-03    3.2976522827e+02
    6.0000000522e-03    3.3633895874e+02
    6.5000001341e-03    3.4287310791e+02
    7.0000002161e-03    3.4936755371e+02
    7.4999998324e-03    3.5582223511e+02
    8.0000003800e-03    3.6223693848e+02
    8.5000004619e-03    3.6861187744e+02
    8.9999996126e-03    3.7494686890e+02
    9.4999996945e-03    3.8125204468e+02
    9.9999997765e-03    3.8751736450e+02
endcurve
