      Date: 11/15/2019      Time: 11:07:28  

     ___________________________________________________
     |                                                 |
     |  Livermore  Software  Technology  Corporation   |
     |                                                 |
     |  7374 Las Positas Road                          |
     |  Livermore, CA 94551                            |
     |  Tel: (925) 449-2500  Fax: (925) 449-2507       |
     |  www.lstc.com                                   |
     |_________________________________________________|
     |                                                 |
     |  LS-DYNA, A Program for Nonlinear Dynamic       |
     |  Analysis of Structures in Three Dimensions     |
     |  Version : smp d R10.1.0   Date: 01/12/2018     |
     |  Revision: 123264          Time: 16:34:46       |
     |                                                 |
     |  Features enabled in this version:              |
     |    Shared Memory Parallel                       |
     |    CESE CHEMISTRY EM ICFD STOCHASTIC_PARTICLES  |
     |    FFTW (multi-dimensional FFTW Library)        |
     |    ARPACK (nonsymmetric eigensolver library)    |
     |    Interactive Graphics                         |
     |    ANSYS Database format                        |
     |    ANSYS License (ANSYS160)                     |
     |                                                 |
     |  Licensed to: Stellenbosch University - 1409    |
     |  Issued by  : LSTC_01142019                     |
     |                                                 |
     |  Platform   : Xeon64 System                     |
     |  OS Level   : Linux 2.6.32 ulm                  |
     |  Compiler   : Intel Fortran Compiler 16.0 SSE2  |
     |  Hostname   : naude-HP-Pavilion-17-Notebook-PC  |
     |  Precision  : Double precision (I8R8)           |
     |  SVN Version: 123300                            |
     |                                                 |
     |  Unauthorized use infringes LSTC copyrights     |
     |_________________________________________________|


 Input file: /home/naude/Documents/Masters-Project/Models/LSDyna_Basic_Tutorials/Ex_2_Tensile

 The native file format       : 64-bit small endian
 Memory size from command line:    20000000

 ********  notice  ********  notice  ********  notice  ********
 *                                                            *
 * This is the LS-DYNA Finite Element code.                   *
 *                                                            *
 * Neither LSTC nor the authors assume any responsibility for *
 * the validity, accuracy, or applicability of any results    *
 * obtained from this system. Users must verify their own     *
 * results.                                                   *
 *                                                            *
 * LSTC endeavors to make the LS-DYNA code as complete,       *
 * accurate and easy to use as possible.                      *
 * Suggestions and comments are welcomed.  Please report any  *
 * errors encountered in either the documentation or results  *
 * immediately to LSTC through your site focus.               *
 *                                                            *
 * Copyright (C) 1990-2018                                    *
 * by Livermore Software Technology Corp. (LSTC)              *
 * All rights reserved                                        *
 *                                                            *
 ********  notice  ********  notice  ********  notice  ********
 
LSTC Environment Variables:
 
LSTC_LICENSE=network
LSTC_LICENSE_SERVER=license.sun.ac.za
 

 Beginning of keyword reader                                   11/15/19 11:07:28
 expanding   memory to    20000000 d     1901716 beginning of keyword reader
 contracting memory to       21001 d     1901716  
 expanding   memory to       74021 d     1912036  
 expanding   memory to      104021 d     1912036  
 expanding   memory to      171605 d     1912036  
 expanding   memory to      192498 d     1912036  
 expanding   memory to      217998 d     1912036  
 expanding   memory to      239306 d     1912036  
 expanding   memory to      259418 d     1912036  
 expanding   memory to      282181 d     1924508  

 Memory required to process keyword     :      282181 
 contracting memory to           1 d     1547892 end of keyword reader

 LS-DYNA will perform a structural only analysis 

 LS-DYNA keyword deck by LS-PrePost                                      
                         ls-dyna smp.123264 d           date 01/12/2018
 expanding   memory to        2382 d     1537575 material, node and element data
 expanding   memory to        2456 d     1537577 mat add general damage 0
 expanding   memory to        2466 d     1537577 material added airbag porosity leakage 
 expanding   memory to        2469 d     1537577 material properties
 expanding   memory to        2475 d     1543119 element data for composite material
 expanding   memory to        2519 d     1569456 gradient of damage data
 expanding   memory to        5096 d     1585888 user control for contact interfaces
 contracting memory to        5077 d     1585888 thermal expansion 0
 expanding   memory to        5797 d     1585888 temp index array for node sorting
 contracting memory to        5077 d     1586612 for boundary cond. vectorization
 expanding   memory to        5709 d     1588052 arbitrary element numbering input
 contracting memory to        5077 d     1588688 thick shell int. pt. strain
 expanding   memory to        5357 d     1588690 spc cards
 expanding   memory to       23715 d     1591307 process element material data
 expanding   memory to       25721 d     1591306 load curve data
 contracting memory to       24704 d     1591307 user_define_loading_set
 expanding   memory to       25102 d     1591307 regularize time history data
 expanding   memory to       25106 d     1591307 *DEFINE_ELEMENT_DEATH
 contracting memory to       25106 d     1591307 rigidwall definitions
 expanding   memory to       25331 d     1591307 velocity b.c
 expanding   memory to       26052 d     1591307 nodal constraint sets
 contracting memory to       25506 d     1591307 contact interfaces
 expanding   memory to       27946 d     1591307 implicit contact 1
 contracting memory to       26506 d     1591439 contact segment data 1
 expanding   memory to       30562 d     1591439 contact segment data 3
 contracting memory to       25506 d     1655458 contact definition
 expanding   memory to       28493 d     1655458 rigid body
 contracting memory to       26024 d     1655464 contact friction
 contracting memory to       26024 d     1655464 implicit friction
 expanding   memory to       26039 d     1655464 joints
 contracting memory to       26039 d     1656064 accelerometers
 expanding   memory to       26139 d     1656064 rigid bodies for disp. termination
 contracting memory to       26139 d     1658224 transformation to move nodes
 expanding   memory to       26140 d     1658995 mat add cohesive 0
 expanding   memory to       26142 d     1658995 sensor_control for curve
 expanding   memory to       26143 d     1658995 flexible body 2
 contracting memory to       26143 d     1658995 implicit joints
 expanding   memory to       26146 d     1658995 implicit explicit hybrid dummy
 expanding   memory to       26866 d     1658995 implicit allocation 1
 expanding   memory to       26873 d     1658995 implicit allocation 2
 expanding   memory to       31193 d     1658995 implicit allocation 4
 expanding   memory to       31914 d     1658995 implicit allocation 5
 expanding   memory to      248223 d     1659095 implicit allocation 6

 S t o r a g e   a l l o c a t i o n   

 Memory required to begin solution      :     283K
 Linear Alg dynamically allocated memory:     7331
 Additional dynamically allocated memory:    1659K
                                   Total:    1948K
       1 t 0.0000E+00 dt 5.00E-04 flush i/o buffers            11/15/19 11:07:30
       1 t 0.0000E+00 dt 5.00E-04 write d3plot file            11/15/19 11:07:30

 BEGIN implicit statics  step      1 t= 5.0000E-04             11/15/19 11:07:30
 ============================================================
                time =  5.00000E-04
   current step size =  5.00000E-04
 expanding   memory to      265507 d     1658375 implicit lsolvr allocation 1
 expanding   memory to      359824 d     1662824 implicit matrix storage
 expanding   memory to      640434 d     1662824 linear eqn. solver allocation 2e
 min. memory for in-core stiffness factorization=            0.9 Mw
 expanding   memory to      892959 d     1662824 linear eqn. solver numerical phase 1
 expanding   memory to    20000000 d     1662824 linear eqn. solver numerical phase 2
 Iteration:   1     *|du|/|u| =  1.0000000E+00     *Ei/E0 =  1.0000000E+00
 Iteration:   2     *|du|/|u| =  2.9723627E-03     *Ei/E0 =  1.5688071E-05
 Iteration:   3     *|du|/|u| =  1.2855760E-02     *Ei/E0 =  5.2415342E-05
 Iteration:   4     *|du|/|u| =  1.1608270E-03     *Ei/E0 =  5.4603954E-07

 Equilibrium iterations summary step      1 t= 5.0000E-04      11/15/19 11:07:31
    Number of iterations to converge         =           4
    Number of stiffness reformations         =           0
    Number of right hand side evaluations    =           5

 Convergence detected as a combination of
     1. Current  maximum   displacement translational norm           
        Value =   1.1588E-03 vs Tolerance =   1.4666E-03
       8 t 5.0000E-04 dt 5.00E-04 write d3plot file            11/15/19 11:07:31

 BEGIN implicit statics  step      2 t= 1.0000E-03             11/15/19 11:07:31
 ============================================================
                time =  1.00000E-03
   current step size =  5.00000E-04
 Iteration:   1     *|du|/|u| =  5.0790288E-01     *Ei/E0 =  2.7939449E-01
 Iteration:   2     *|du|/|u| =  2.8218737E-02     *Ei/E0 =  1.4290001E-05
 Iteration:   3     *|du|/|u| =  6.0556286E-02     *Ei/E0 =  2.6294469E-05
 Iteration:   4     *|du|/|u| =  6.1305508E-02     *Ei/E0 =  2.4560100E-05
 Iteration:   5     *|du|/|u| =  1.1782070E-01     *Ei/E0 =  4.4791175E-05
 Iteration:   6     *|du|/|u| =  4.4019653E-02     *Ei/E0 =  1.7472846E-05
 Iteration:   7     *|du|/|u| =  2.7962805E-02     *Ei/E0 =  1.1193575E-05
 Iteration:   8     *|du|/|u| =  1.5075424E-02     *Ei/E0 =  8.0453959E-06
 Iteration:   9     *|du|/|u| =  1.5138248E-02     *Ei/E0 =  5.2332020E-06
 Iteration:  10     *|du|/|u| =  3.4000926E-03     *Ei/E0 =  2.0002777E-06
 Iteration:  11     *|du|/|u| =  7.9650313E-03     *Ei/E0 =  2.0774499E-06

 ITERATION LIMIT reached, automatically REFORMING stiffness matrix...
 Iteration:  12     *|du|/|u| =  5.2067408E-03     *Ei/E0 =  1.3428883E-06
 Iteration:  13     *|du|/|u| =  3.6628782E-03     *Ei/E0 =  8.1338216E-07
 Iteration:  14     *|du|/|u| =  2.9623104E-03     *Ei/E0 =  6.8321418E-07
 Iteration:  15     *|du|/|u| =  2.9687014E-03     *Ei/E0 =  5.3893289E-07
 Iteration:  16     *|du|/|u| =  3.1253487E-03     *Ei/E0 =  2.7184991E-07
 Iteration:  17     *|du|/|u| =  3.5229774E-03     *Ei/E0 =  2.6217521E-07
 Iteration:  18     *|du|/|u| =  1.6676482E-03     *Ei/E0 =  9.8786207E-08
 Iteration:  19     *|du|/|u| =  1.4134498E-03     *Ei/E0 =  8.7394912E-08
 Iteration:  20     *|du|/|u| =  1.5941688E-03     *Ei/E0 =  7.8186315E-08
 Iteration:  21     *|du|/|u| =  1.4755366E-03     *Ei/E0 =  5.9463436E-08
 Iteration:  22     *|du|/|u| =  1.7679501E-03     *Ei/E0 =  6.3565800E-08

 ITERATION LIMIT reached, automatically REFORMING stiffness matrix...
 Iteration:  23     *|du|/|u| =  1.2138001E-04     *Ei/E0 =  8.7989362E-09

 Equilibrium iterations summary step      2 t= 1.0000E-03      11/15/19 11:07:34
    Number of iterations to converge         =          23
    Number of stiffness reformations         =           2
    Number of right hand side evaluations    =         126

 Convergence detected as a combination of
     1. Current  maximum   displacement translational norm           
        Value =   3.4742E-04 vs Tolerance =   1.4666E-03
     2. Ratio of euclidian displacement translational norms          
        Value =   1.2138E-04 vs Tolerance =   1.0000E-03
     3. Ratio of euclidian energy       translational norms          
        Value =   8.7989E-09 vs Tolerance =   1.0000E-02
     135 t 1.0000E-03 dt 5.00E-04 write d3plot file            11/15/19 11:07:34

 BEGIN implicit statics  step      3 t= 1.5000E-03             11/15/19 11:07:34
 ============================================================
                time =  1.50000E-03
   current step size =  5.00000E-04
 Iteration:   1     *|du|/|u| =  3.3853091E-01     *Ei/E0 =  1.0000000E+00
 Iteration:   2     *|du|/|u| =  5.2804871E-04     *Ei/E0 =  5.0335073E-07

 Equilibrium iterations summary step      3 t= 1.5000E-03      11/15/19 11:07:34
    Number of iterations to converge         =           2
    Number of stiffness reformations         =           0
    Number of right hand side evaluations    =           3

 Convergence detected as a combination of
     1. Ratio of euclidian displacement translational norms          
        Value =   5.2805E-04 vs Tolerance =   1.0000E-03
     2. Ratio of euclidian energy       translational norms          
        Value =   5.0335E-07 vs Tolerance =   1.0000E-02
     139 t 1.5000E-03 dt 5.00E-04 write d3plot file            11/15/19 11:07:35

 BEGIN implicit statics  step      4 t= 2.0000E-03             11/15/19 11:07:35
 ============================================================
                time =  2.00000E-03
   current step size =  5.00000E-04
 Iteration:   1     *|du|/|u| =  2.4614640E-01     *Ei/E0 =  6.2151545E-01
 Iteration:   2     *|du|/|u| =  8.1298329E-04     *Ei/E0 =  7.5527974E-07

 Equilibrium iterations summary step      4 t= 2.0000E-03      11/15/19 11:07:35
    Number of iterations to converge         =           2
    Number of stiffness reformations         =           0
    Number of right hand side evaluations    =           3

 Convergence detected as a combination of
     1. Ratio of euclidian displacement translational norms          
        Value =   8.1298E-04 vs Tolerance =   1.0000E-03
     2. Ratio of euclidian energy       translational norms          
        Value =   7.5528E-07 vs Tolerance =   1.0000E-02
     143 t 2.0000E-03 dt 5.00E-04 write d3plot file            11/15/19 11:07:35

 BEGIN implicit statics  step      5 t= 2.5000E-03             11/15/19 11:07:35
 ============================================================
                time =  2.50000E-03
   current step size =  5.00000E-04
 Iteration:   1     *|du|/|u| =  1.9647547E-01     *Ei/E0 =  2.3831658E-01
 Iteration:   2     *|du|/|u| =  5.9144829E-04     *Ei/E0 =  7.4331590E-07

 Equilibrium iterations summary step      5 t= 2.5000E-03      11/15/19 11:07:35
    Number of iterations to converge         =           2
    Number of stiffness reformations         =           0
    Number of right hand side evaluations    =           3

 Convergence detected as a combination of
     1. Ratio of euclidian displacement translational norms          
        Value =   5.9145E-04 vs Tolerance =   1.0000E-03
     2. Ratio of euclidian energy       translational norms          
        Value =   7.4332E-07 vs Tolerance =   1.0000E-02
     147 t 2.5000E-03 dt 5.00E-04 write d3plot file            11/15/19 11:07:35

 BEGIN implicit statics  step      6 t= 3.0000E-03             11/15/19 11:07:35
 ============================================================
                time =  3.00000E-03
   current step size =  5.00000E-04
 Iteration:   1     *|du|/|u| =  1.6205412E-01     *Ei/E0 =  2.3265122E-01
 Iteration:   2     *|du|/|u| =  4.1055230E-04     *Ei/E0 =  2.9294261E-07

 Equilibrium iterations summary step      6 t= 3.0000E-03      11/15/19 11:07:36
    Number of iterations to converge         =           2
    Number of stiffness reformations         =           0
    Number of right hand side evaluations    =           3

 Convergence detected as a combination of
     1. Ratio of euclidian displacement translational norms          
        Value =   4.1055E-04 vs Tolerance =   1.0000E-03
     2. Ratio of euclidian energy       translational norms          
        Value =   2.9294E-07 vs Tolerance =   1.0000E-02
     151 t 3.0000E-03 dt 5.00E-04 write d3plot file            11/15/19 11:07:36

 BEGIN implicit statics  step      7 t= 3.5000E-03             11/15/19 11:07:36
 ============================================================
                time =  3.50000E-03
   current step size =  5.00000E-04
 Iteration:   1     *|du|/|u| =  1.3951896E-01     *Ei/E0 =  2.3761343E-01
 Iteration:   2     *|du|/|u| =  2.2117842E-04     *Ei/E0 =  1.1710154E-07

 Equilibrium iterations summary step      7 t= 3.5000E-03      11/15/19 11:07:36
    Number of iterations to converge         =           2
    Number of stiffness reformations         =           0
    Number of right hand side evaluations    =           3

 Convergence detected as a combination of
     1. Ratio of euclidian displacement translational norms          
        Value =   2.2118E-04 vs Tolerance =   1.0000E-03
     2. Ratio of euclidian energy       translational norms          
        Value =   1.1710E-07 vs Tolerance =   1.0000E-02
     155 t 3.5000E-03 dt 5.00E-04 write d3plot file            11/15/19 11:07:36

 BEGIN implicit statics  step      8 t= 4.0000E-03             11/15/19 11:07:36
 ============================================================
                time =  4.00000E-03
   current step size =  5.00000E-04
 Iteration:   1     *|du|/|u| =  1.2252633E-01     *Ei/E0 =  2.4050565E-01
 Iteration:   2     *|du|/|u| =  1.3681576E-04     *Ei/E0 =  5.5303048E-08

 Equilibrium iterations summary step      8 t= 4.0000E-03      11/15/19 11:07:36
    Number of iterations to converge         =           2
    Number of stiffness reformations         =           0
    Number of right hand side evaluations    =           3

 Convergence detected as a combination of
     1. Ratio of euclidian displacement translational norms          
        Value =   1.3682E-04 vs Tolerance =   1.0000E-03
     2. Ratio of euclidian energy       translational norms          
        Value =   5.5303E-08 vs Tolerance =   1.0000E-02
     159 t 4.0000E-03 dt 5.00E-04 write d3plot file            11/15/19 11:07:37

 BEGIN implicit statics  step      9 t= 4.5000E-03             11/15/19 11:07:37
 ============================================================
                time =  4.50000E-03
   current step size =  5.00000E-04
 Iteration:   1     *|du|/|u| =  1.0919818E-01     *Ei/E0 =  2.4175189E-01
 Iteration:   2     *|du|/|u| =  1.1688073E-04     *Ei/E0 =  3.1659199E-08

 Equilibrium iterations summary step      9 t= 4.5000E-03      11/15/19 11:07:37
    Number of iterations to converge         =           2
    Number of stiffness reformations         =           0
    Number of right hand side evaluations    =           3

 Convergence detected as a combination of
     1. Ratio of euclidian displacement translational norms          
        Value =   1.1688E-04 vs Tolerance =   1.0000E-03
     2. Ratio of euclidian energy       translational norms          
        Value =   3.1659E-08 vs Tolerance =   1.0000E-02
     163 t 4.5000E-03 dt 5.00E-04 write d3plot file            11/15/19 11:07:37

 BEGIN implicit statics  step     10 t= 5.0000E-03             11/15/19 11:07:37
 ============================================================
                time =  5.00000E-03
   current step size =  5.00000E-04
 Iteration:   1     *|du|/|u| =  9.8479870E-02     *Ei/E0 =  2.4190134E-01
 Iteration:   2     *|du|/|u| =  1.1750438E-04     *Ei/E0 =  2.1959211E-08

 Equilibrium iterations summary step     10 t= 5.0000E-03      11/15/19 11:07:37
    Number of iterations to converge         =           2
    Number of stiffness reformations         =           0
    Number of right hand side evaluations    =           3

 Convergence detected as a combination of
     1. Ratio of euclidian displacement translational norms          
        Value =   1.1750E-04 vs Tolerance =   1.0000E-03
     2. Ratio of euclidian energy       translational norms          
        Value =   2.1959E-08 vs Tolerance =   1.0000E-02
     167 t 5.0000E-03 dt 5.00E-04 write d3plot file            11/15/19 11:07:37

 BEGIN implicit statics  step     11 t= 5.5000E-03             11/15/19 11:07:37
 ============================================================
                time =  5.50000E-03
   current step size =  5.00000E-04
 Iteration:   1     *|du|/|u| =  8.9669226E-02     *Ei/E0 =  2.4125668E-01
 Iteration:   2     *|du|/|u| =  1.1916266E-04     *Ei/E0 =  1.7768588E-08

 Equilibrium iterations summary step     11 t= 5.5000E-03      11/15/19 11:07:38
    Number of iterations to converge         =           2
    Number of stiffness reformations         =           0
    Number of right hand side evaluations    =           3

 Convergence detected as a combination of
     1. Ratio of euclidian displacement translational norms          
        Value =   1.1916E-04 vs Tolerance =   1.0000E-03
     2. Ratio of euclidian energy       translational norms          
        Value =   1.7769E-08 vs Tolerance =   1.0000E-02
     171 t 5.5000E-03 dt 5.00E-04 write d3plot file            11/15/19 11:07:38

 BEGIN implicit statics  step     12 t= 6.0000E-03             11/15/19 11:07:38
 ============================================================
                time =  6.00000E-03
   current step size =  5.00000E-04
 Iteration:   1     *|du|/|u| =  8.2299736E-02     *Ei/E0 =  2.4007727E-01
 Iteration:   2     *|du|/|u| =  1.1848440E-04     *Ei/E0 =  1.5952589E-08

 Equilibrium iterations summary step     12 t= 6.0000E-03      11/15/19 11:07:38
    Number of iterations to converge         =           2
    Number of stiffness reformations         =           0
    Number of right hand side evaluations    =           3

 Convergence detected as a combination of
     1. Ratio of euclidian displacement translational norms          
        Value =   1.1848E-04 vs Tolerance =   1.0000E-03
     2. Ratio of euclidian energy       translational norms          
        Value =   1.5953E-08 vs Tolerance =   1.0000E-02
     175 t 6.0000E-03 dt 5.00E-04 write d3plot file            11/15/19 11:07:38

 BEGIN implicit statics  step     13 t= 6.5000E-03             11/15/19 11:07:38
 ============================================================
                time =  6.50000E-03
   current step size =  5.00000E-04
 Iteration:   1     *|du|/|u| =  7.6050533E-02     *Ei/E0 =  2.3858771E-01
 Iteration:   2     *|du|/|u| =  1.1593683E-04     *Ei/E0 =  1.5200201E-08

 Equilibrium iterations summary step     13 t= 6.5000E-03      11/15/19 11:07:39
    Number of iterations to converge         =           2
    Number of stiffness reformations         =           0
    Number of right hand side evaluations    =           3

 Convergence detected as a combination of
     1. Ratio of euclidian displacement translational norms          
        Value =   1.1594E-04 vs Tolerance =   1.0000E-03
     2. Ratio of euclidian energy       translational norms          
        Value =   1.5200E-08 vs Tolerance =   1.0000E-02
     179 t 6.5000E-03 dt 5.00E-04 write d3plot file            11/15/19 11:07:39

 BEGIN implicit statics  step     14 t= 7.0000E-03             11/15/19 11:07:39
 ============================================================
                time =  7.00000E-03
   current step size =  5.00000E-04
 Iteration:   1     *|du|/|u| =  7.0671474E-02     *Ei/E0 =  2.3681807E-01
 Iteration:   2     *|du|/|u| =  1.1235743E-04     *Ei/E0 =  1.4911819E-08

 Equilibrium iterations summary step     14 t= 7.0000E-03      11/15/19 11:07:39
    Number of iterations to converge         =           2
    Number of stiffness reformations         =           0
    Number of right hand side evaluations    =           3

 Convergence detected as a combination of
     1. Ratio of euclidian displacement translational norms          
        Value =   1.1236E-04 vs Tolerance =   1.0000E-03
     2. Ratio of euclidian energy       translational norms          
        Value =   1.4912E-08 vs Tolerance =   1.0000E-02
     183 t 7.0000E-03 dt 5.00E-04 write d3plot file            11/15/19 11:07:39

 BEGIN implicit statics  step     15 t= 7.5000E-03             11/15/19 11:07:39
 ============================================================
                time =  7.50000E-03
   current step size =  5.00000E-04
 Iteration:   1     *|du|/|u| =  6.6020898E-02     *Ei/E0 =  2.3507989E-01
 Iteration:   2     *|du|/|u| =  1.0838359E-04     *Ei/E0 =  1.4828492E-08

 Equilibrium iterations summary step     15 t= 7.5000E-03      11/15/19 11:07:39
    Number of iterations to converge         =           2
    Number of stiffness reformations         =           0
    Number of right hand side evaluations    =           3

 Convergence detected as a combination of
     1. Ratio of euclidian displacement translational norms          
        Value =   1.0838E-04 vs Tolerance =   1.0000E-03
     2. Ratio of euclidian energy       translational norms          
        Value =   1.4828E-08 vs Tolerance =   1.0000E-02
     187 t 7.5000E-03 dt 5.00E-04 write d3plot file            11/15/19 11:07:40

 BEGIN implicit statics  step     16 t= 8.0000E-03             11/15/19 11:07:40
 ============================================================
                time =  8.00000E-03
   current step size =  5.00000E-04
 Iteration:   1     *|du|/|u| =  6.1921650E-02     *Ei/E0 =  2.3309345E-01
 Iteration:   2     *|du|/|u| =  1.0436960E-04     *Ei/E0 =  1.4838365E-08

 Equilibrium iterations summary step     16 t= 8.0000E-03      11/15/19 11:07:40
    Number of iterations to converge         =           2
    Number of stiffness reformations         =           0
    Number of right hand side evaluations    =           3

 Convergence detected as a combination of
     1. Ratio of euclidian displacement translational norms          
        Value =   1.0437E-04 vs Tolerance =   1.0000E-03
     2. Ratio of euclidian energy       translational norms          
        Value =   1.4838E-08 vs Tolerance =   1.0000E-02
     191 t 8.0000E-03 dt 5.00E-04 write d3plot file            11/15/19 11:07:40

 BEGIN implicit statics  step     17 t= 8.5000E-03             11/15/19 11:07:40
 ============================================================
                time =  8.50000E-03
   current step size =  5.00000E-04
 Iteration:   1     *|du|/|u| =  5.8322664E-02     *Ei/E0 =  2.3126802E-01
 Iteration:   2     *|du|/|u| =  1.0053217E-04     *Ei/E0 =  1.4911050E-08

 Equilibrium iterations summary step     17 t= 8.5000E-03      11/15/19 11:07:40
    Number of iterations to converge         =           2
    Number of stiffness reformations         =           0
    Number of right hand side evaluations    =           3

 Convergence detected as a combination of
     1. Ratio of euclidian displacement translational norms          
        Value =   1.0053E-04 vs Tolerance =   1.0000E-03
     2. Ratio of euclidian energy       translational norms          
        Value =   1.4911E-08 vs Tolerance =   1.0000E-02
     195 t 8.5000E-03 dt 5.00E-04 write d3plot file            11/15/19 11:07:40

 BEGIN implicit statics  step     18 t= 9.0000E-03             11/15/19 11:07:40
 ============================================================
                time =  9.00000E-03
   current step size =  5.00000E-04
 Iteration:   1     *|du|/|u| =  5.5098507E-02     *Ei/E0 =  2.2925139E-01
 Iteration:   2     *|du|/|u| =  9.6940984E-05     *Ei/E0 =  1.5025698E-08

 Equilibrium iterations summary step     18 t= 9.0000E-03      11/15/19 11:07:41
    Number of iterations to converge         =           2
    Number of stiffness reformations         =           0
    Number of right hand side evaluations    =           3

 Convergence detected as a combination of
     1. Ratio of euclidian displacement translational norms          
        Value =   9.6941E-05 vs Tolerance =   1.0000E-03
     2. Ratio of euclidian energy       translational norms          
        Value =   1.5026E-08 vs Tolerance =   1.0000E-02
     199 t 9.0000E-03 dt 5.00E-04 write d3plot file            11/15/19 11:07:41

 BEGIN implicit statics  step     19 t= 9.5000E-03             11/15/19 11:07:41
 ============================================================
                time =  9.50000E-03
   current step size =  5.00000E-04
 Iteration:   1     *|du|/|u| =  5.2226967E-02     *Ei/E0 =  2.2738697E-01
 Iteration:   2     *|du|/|u| =  9.3638543E-05     *Ei/E0 =  1.5180106E-08

 Equilibrium iterations summary step     19 t= 9.5000E-03      11/15/19 11:07:41
    Number of iterations to converge         =           2
    Number of stiffness reformations         =           0
    Number of right hand side evaluations    =           3

 Convergence detected as a combination of
     1. Ratio of euclidian displacement translational norms          
        Value =   9.3639E-05 vs Tolerance =   1.0000E-03
     2. Ratio of euclidian energy       translational norms          
        Value =   1.5180E-08 vs Tolerance =   1.0000E-02
     203 t 9.5000E-03 dt 5.00E-04 write d3plot file            11/15/19 11:07:41

 BEGIN implicit statics  step     20 t= 1.0000E-02             11/15/19 11:07:41
 ============================================================
                time =  1.00000E-02
   current step size =  5.00000E-04
 Iteration:   1     *|du|/|u| =  4.9634015E-02     *Ei/E0 =  2.2547899E-01
 Iteration:   2     *|du|/|u| =  9.0614842E-05     *Ei/E0 =  1.5365576E-08

 Equilibrium iterations summary step     20 t= 1.0000E-02      11/15/19 11:07:41
    Number of iterations to converge         =           2
    Number of stiffness reformations         =           0
    Number of right hand side evaluations    =           3

 Convergence detected as a combination of
     1. Ratio of euclidian displacement translational norms          
        Value =   9.0615E-05 vs Tolerance =   1.0000E-03
     2. Ratio of euclidian energy       translational norms          
        Value =   1.5366E-08 vs Tolerance =   1.0000E-02
     207 t 1.0000E-02 dt 5.00E-04 write d3plot file            11/15/19 11:07:41
 
 *** termination time reached ***
     207 t 1.0000E-02 dt 5.00E-04 write d3dump01 file          11/15/19 11:07:42

 N o r m a l    t e r m i n a t i o n                          11/15/19 11:07:42
 
 Memory reqd for implicit solution: max used        20000000
 Memory reqd for implicit solution: incore          20000001
 Memory reqd for implicit solution: oocore            964375

 T i m i n g   i n f o r m a t i o n
                        CPU(seconds)   %CPU  Clock(seconds) %Clock
  ----------------------------------------------------------------
  Keyword Processing ... 3.1009E-01    2.07     5.5416E-01    3.92
    KW Reading ......... 5.8141E-02    0.39     7.5401E-02    0.53
    KW Writing ......... 6.7097E-03    0.04     8.9869E-02    0.63
  Initialization ....... 6.7317E-01    4.49     1.4616E+00   10.33
    Init Proc Phase 1 .. 3.5842E-01    2.39     8.2628E-01    5.84
    Init Proc Phase 2 .. 2.0063E-02    0.13     2.0985E-01    1.48
  Init solver .......... 4.6786E-02    0.31     6.0127E-02    0.42
  Element processing ... 2.0313E+00   13.54     1.2077E+00    8.53
    Shells ............. 2.0235E+00   13.49     1.1703E+00    8.27
    ISO Shells ......... 2.2755E-04    0.00     2.1800E-04    0.00
  Binary databases ..... 3.6639E-02    0.24     2.3891E-02    0.17
  ASCII database ....... 8.5956E-03    0.06     1.2400E-03    0.01
  Contact algorithm .... 2.3543E-03    0.02     1.0070E-03    0.01
  Rigid Bodies ......... 2.9712E-02    0.20     2.8769E-02    0.20
  Implicit ............. 7.5895E+00   50.61     7.2915E+00   51.52
  Implicit Lin. Alg. ... 3.5123E+00   23.42     2.8481E+00   20.12
    Imp. LA Mtx Assemb . 6.8247E-01    4.55     3.8190E-01    2.70
    Imp. LA Factor ..... 7.9081E-01    5.27     4.8856E-01    3.45
    Imp. LA Solve ...... 2.0380E+00   13.59     1.9770E+00   13.97
  Time step size ....... 1.4249E-03    0.01     8.6100E-04    0.01
  Group force file ..... 4.2610E-04    0.00     3.7100E-04    0.00
  Others ............... 1.0146E-01    0.68     3.5768E-02    0.25
  Misc. 1 .............. 4.5285E-01    3.02     4.4672E-01    3.16
  Misc. 3 .............. 1.2742E-01    0.85     1.2199E-01    0.86
  Misc. 4 .............. 7.2581E-02    0.48     6.8824E-02    0.49
  ----------------------------------------------------------------
  T o t a l s            1.4997E+01  100.00     1.4153E+01  100.00

 Problem time       =    1.0000E-02
 Problem cycle      =       207
 Total CPU time     =        15 seconds (   0 hours  0 minutes 15 seconds)
 CPU time per zone cycle  =     107118.401 nanoseconds
 Clock time per zone cycle=      92773.688 nanoseconds

 Number of CPU's    2
 NLQ used/max     192/  192
 Start time   11/15/2019 11:07:28  
 End time     11/15/2019 11:07:42  
 Elapsed time      14 seconds for     207 cycles using  2 SMP threads
             (      0 hour   0 minute  14 seconds)

 N o r m a l    t e r m i n a t i o n                          11/15/19 11:07:42
