Curveplot
LS-DYNA keyword deck by LS-PrePost
Time
Yield Value (eps)
Element id
Sh-314 (ip=1) #pts=2001
* Minval=     0.0000000000e+00 at time=         0.0000000000
* Maxval=     1.3688001037e-01 at time=         0.0099998703
    0.0000000000e+00    0.0000000000e+00
    4.7574098971e-06    0.0000000000e+00
    9.7652100521e-06    0.0000000000e+00
    1.4772999748e-05    0.0000000000e+00
    1.9780800358e-05    0.0000000000e+00
    2.4788800147e-05    0.0000000000e+00
    2.9797900424e-05    0.0000000000e+00
    3.4808701457e-05    0.0000000000e+00
    3.9819900849e-05    0.0000000000e+00
    4.4830998377e-05    0.0000000000e+00
    4.9842099543e-05    0.0000000000e+00
    5.4853400798e-05    0.0000000000e+00
    5.9864498326e-05    0.0000000000e+00
    6.4875697717e-05    0.0000000000e+00
    6.9886897109e-05    0.0000000000e+00
    7.4898096500e-05    0.0000000000e+00
    7.9909601482e-05    1.3966000552e-05
    8.4922001406e-05    1.3966000552e-05
    8.9935099822e-05    1.3966000552e-05
    9.4947798061e-05    1.3966000552e-05
    9.9960299849e-05    1.3966000552e-05
    1.0497299809e-04    6.1735001509e-05
    1.0998499783e-04    6.6506006988e-05
    1.1499800166e-04    1.0589000158e-04
    1.1975999951e-04    1.1836000340e-04
    1.2477299606e-04    1.3364001643e-04
    1.2978599989e-04    1.5654000163e-04
    1.3479799964e-04    1.7472001491e-04
    1.3981100346e-04    1.9637001969e-04
    1.4482399274e-04    2.0390001009e-04
    1.4983699657e-04    2.2878001619e-04
    1.5484899632e-04    2.5201000972e-04
    1.5986200015e-04    2.6748000528e-04
    1.6487500397e-04    2.9938001535e-04
    1.6988799325e-04    3.1478001620e-04
    1.7490099708e-04    3.5183003638e-04
    1.7991400091e-04    3.8677002885e-04
    1.8492700474e-04    4.3669002480e-04
    1.8993900449e-04    5.1376002375e-04
    1.9495199376e-04    5.9809000231e-04
    1.9996499759e-04    7.2529999306e-04
    2.0497800142e-04    8.6301006377e-04
    2.0999100525e-04    1.0285000317e-03
    2.1475300309e-04    1.1994000524e-03
    2.1976600692e-04    1.3936000178e-03
    2.2477899620e-04    1.6199001111e-03
    2.2979200003e-04    1.8761000829e-03
    2.3480500386e-04    2.1918001585e-03
    2.3981799313e-04    2.5615002960e-03
    2.4483099696e-04    2.9964002315e-03
    2.4984398624e-04    3.4840002190e-03
    2.5485700462e-04    3.9917002432e-03
    2.5986999390e-04    4.4952998869e-03
    2.6488301228e-04    4.9411999062e-03
    2.6989600156e-04    5.3097000346e-03
    2.7490899083e-04    5.5711003952e-03
    2.7992200921e-04    5.7224999182e-03
    2.8493499849e-04    5.7938001119e-03
    2.8994900640e-04    5.8090002276e-03
    2.9496199568e-04    5.8145001531e-03
    2.9997501406e-04    5.8148000389e-03
    3.0498800334e-04    5.8174002916e-03
    3.0975000118e-04    5.8242999949e-03
    3.1476299046e-04    5.8251000009e-03
    3.1977600884e-04    5.8344006538e-03
    3.2478998764e-04    5.8358004317e-03
    3.2980300603e-04    5.8430000208e-03
    3.3481599530e-04    5.8530005626e-03
    3.3982901368e-04    5.8547002263e-03
    3.4484200296e-04    5.8670002036e-03
    3.4985499224e-04    5.8740004897e-03
    3.5486900015e-04    5.8892006055e-03
    3.5988198943e-04    5.9105004184e-03
    3.6489500781e-04    5.9315003455e-03
    3.6990799708e-04    5.9629003517e-03
    3.7492098636e-04    5.9906998649e-03
    3.7993499427e-04    6.0268999077e-03
    3.8494801265e-04    6.0607003979e-03
    3.8996100193e-04    6.0979002155e-03
    3.9497399121e-04    6.1363005079e-03
    3.9998799912e-04    6.1703003012e-03
    4.0474999696e-04    6.2032002024e-03
    4.0976400487e-04    6.2325005420e-03
    4.1477699415e-04    6.2596006319e-03
    4.1979001253e-04    6.2854001299e-03
    4.2480399134e-04    6.3064000569e-03
    4.2981700972e-04    6.3305003569e-03
    4.3483098852e-04    6.3497005031e-03
    4.3984400691e-04    6.3722003251e-03
    4.4485798571e-04    6.3930004835e-03
    4.4987100409e-04    6.4130006358e-03
    4.5488501200e-04    6.4346003346e-03
    4.5989800128e-04    6.4539001323e-03
    4.6491200919e-04    6.4759999514e-03
    4.6992499847e-04    6.4984005876e-03
    4.7493900638e-04    6.5240003169e-03
    4.7995199566e-04    6.5545001999e-03
    4.8496600357e-04    6.5911007114e-03
    4.8997998238e-04    6.6373003647e-03
    4.9499399029e-04    6.6928002052e-03
    4.9975700676e-04    6.7575005814e-03
    5.0477002515e-04    6.8379002623e-03
    5.0978397485e-04    6.9329002872e-03
    5.1479798276e-04    7.0450003259e-03
    5.1981199067e-04    7.1724001318e-03
    5.2482599858e-04    7.3202000931e-03
    5.2983901696e-04    7.4857999571e-03
    5.3485302487e-04    7.6719000936e-03
    5.3986697458e-04    7.8786006197e-03
    5.4488098249e-04    8.1034004688e-03
    5.4989499040e-04    8.3474004641e-03
    5.5490899831e-04    8.6064999923e-03
    5.5992300622e-04    8.8790003210e-03
    5.6493701413e-04    9.1620003805e-03
    5.6995102204e-04    9.4501003623e-03
    5.7496497175e-04    9.7407000139e-03
    5.7997897966e-04    1.0027000681e-02
    5.8499298757e-04    1.0304001160e-02
    5.8975600405e-04    1.0555000976e-02
    5.9477001196e-04    1.0800001211e-02
    5.9978500940e-04    1.1025000364e-02
    6.0479901731e-04    1.1227000505e-02
    6.0981302522e-04    1.1407000944e-02
    6.1482697492e-04    1.1567001231e-02
    6.1984098284e-04    1.1705000885e-02
    6.2485598028e-04    1.1824000627e-02
    6.2986998819e-04    1.1923000216e-02
    6.3488399610e-04    1.2003000826e-02
    6.3989800401e-04    1.2062001042e-02
    6.4491300145e-04    1.2101001106e-02
    6.4992700936e-04    1.2124000117e-02
    6.5494200680e-04    1.2128001079e-02
    6.5995601472e-04    1.2128001079e-02
    6.6497101216e-04    1.2128001079e-02
    6.6998502007e-04    1.2129001319e-02
    6.7474902608e-04    1.2129001319e-02
    6.7976402352e-04    1.2129001319e-02
    6.8477797322e-04    1.2131000869e-02
    6.8979302887e-04    1.2132000178e-02
    6.9480802631e-04    1.2137001380e-02
    6.9982197601e-04    1.2147000991e-02
    7.0483697345e-04    1.2164001353e-02
    7.0985098137e-04    1.2189000845e-02
    7.1486597881e-04    1.2219000608e-02
    7.1988097625e-04    1.2252001092e-02
    7.2489498416e-04    1.2285000645e-02
    7.2990899207e-04    1.2318000197e-02
    7.3492398951e-04    1.2348000892e-02
    7.3993799742e-04    1.2377000414e-02
    7.4495299486e-04    1.2403001077e-02
    7.4996700278e-04    1.2429000810e-02
    7.5498101069e-04    1.2455000542e-02
    7.5999600813e-04    1.2482001446e-02
    7.6475902461e-04    1.2509001419e-02
    7.6977297431e-04    1.2541000731e-02
    7.7478698222e-04    1.2576000765e-02
    7.7980099013e-04    1.2615000829e-02
    7.8481499804e-04    1.2658000924e-02
    7.8982900595e-04    1.2706000358e-02
    7.9484202433e-04    1.2761001475e-02
    7.9985597404e-04    1.2823000550e-02
    8.0486899242e-04    1.2893000618e-02
    8.0988300033e-04    1.2973000295e-02
    8.1489601871e-04    1.3063001446e-02
    8.1990897888e-04    1.3163001277e-02
    8.2492199726e-04    1.3273000717e-02
    8.2993402611e-04    1.3394001871e-02
    8.3494698629e-04    1.3524000533e-02
    8.3996000467e-04    1.3665000908e-02
    8.4497197531e-04    1.3815000653e-02
    8.4998499369e-04    1.3977000490e-02
    8.5499702254e-04    1.4149000868e-02
    8.5975899128e-04    1.4324001037e-02
    8.6477200966e-04    1.4517000876e-02
    8.6978398031e-04    1.4721001498e-02
    8.7479699869e-04    1.4931001700e-02
    8.7980902754e-04    1.5147001483e-02
    8.8482099818e-04    1.5365000814e-02
    8.8983401656e-04    1.5582000837e-02
    8.9484598720e-04    1.5797000378e-02
    8.9985900559e-04    1.6007000580e-02
    9.0487097623e-04    1.6209000722e-02
    9.0988399461e-04    1.6400001943e-02
    9.1489602346e-04    1.6579000279e-02
    9.1990898363e-04    1.6741001979e-02
    9.2492101248e-04    1.6884000972e-02
    9.2993298313e-04    1.7005002126e-02
    9.3494600151e-04    1.7103001475e-02
    9.3995797215e-04    1.7179001123e-02
    9.4497099053e-04    1.7235001549e-02
    9.4998301938e-04    1.7276000232e-02
    9.5499597955e-04    1.7306001857e-02
    9.5975701697e-04    1.7332000658e-02
    9.6476997714e-04    1.7359001562e-02
    9.6978200600e-04    1.7393002287e-02
    9.7479502438e-04    1.7435001209e-02
    9.7980699502e-04    1.7488000914e-02
    9.8481902387e-04    1.7553001642e-02
    9.8983198404e-04    1.7627000809e-02
    9.9484401289e-04    1.7710002139e-02
    9.9985697307e-04    1.7798000947e-02
    1.0048700497e-03    1.7887001857e-02
    1.0098799830e-03    1.7975000665e-02
    1.0148900328e-03    1.8056999892e-02
    1.0199099779e-03    1.8131000921e-02
    1.0249200277e-03    1.8192002550e-02
    1.0299299611e-03    1.8241001293e-02
    1.0349400109e-03    1.8275002018e-02
    1.0399599560e-03    1.8294000998e-02
    1.0449700058e-03    1.8302001059e-02
    1.0499800555e-03    1.8305001780e-02
    1.0549899889e-03    1.8306002021e-02
    1.0597499786e-03    1.8307002261e-02
    1.0647700401e-03    1.8310001120e-02
    1.0697799735e-03    1.8317000940e-02
    1.0747900233e-03    1.8329001963e-02
    1.0797999566e-03    1.8348000944e-02
    1.0848100064e-03    1.8375001848e-02
    1.0898299515e-03    1.8408002332e-02
    1.0948400013e-03    1.8446000293e-02
    1.0998500511e-03    1.8489001319e-02
    1.1048599845e-03    1.8534000963e-02
    1.1098700343e-03    1.8580000848e-02
    1.1148799676e-03    1.8625000492e-02
    1.1198900174e-03    1.8669001758e-02
    1.1248999508e-03    1.8712000921e-02
    1.1299100006e-03    1.8755000085e-02
    1.1349200504e-03    1.8798001111e-02
    1.1399299838e-03    1.8842000514e-02
    1.1449400336e-03    1.8889002502e-02
    1.1499499669e-03    1.8939001486e-02
    1.1549600167e-03    1.8992001191e-02
    1.1599699501e-03    1.9048999995e-02
    1.1649799999e-03    1.9110001624e-02
    1.1699900497e-03    1.9173001871e-02
    1.1749899713e-03    1.9237000495e-02
    1.1797499610e-03    1.9297001883e-02
    1.1847600108e-03    1.9359001890e-02
    1.1897699442e-03    1.9417000934e-02
    1.1947799940e-03    1.9472001120e-02
    1.1997800320e-03    1.9522001967e-02
    1.2047899654e-03    1.9570002332e-02
    1.2098000152e-03    1.9617000595e-02
    1.2148099486e-03    1.9666001201e-02
    1.2198099867e-03    1.9719000906e-02
    1.2248200364e-03    1.9778002053e-02
    1.2298299698e-03    1.9846001640e-02
    1.2348400196e-03    1.9924001768e-02
    1.2398400577e-03    2.0013002679e-02
    1.2448499911e-03    2.0115001127e-02
    1.2498600408e-03    2.0231001079e-02
    1.2548599625e-03    2.0360002294e-02
    1.2598700123e-03    2.0504001528e-02
    1.2648799457e-03    2.0663000643e-02
    1.2698799837e-03    2.0836001262e-02
    1.2748900335e-03    2.1021001041e-02
    1.2798999669e-03    2.1216001362e-02
    1.2849000050e-03    2.1418001503e-02
    1.2899100548e-03    2.1622002125e-02
    1.2949199881e-03    2.1826000884e-02
    1.2999200262e-03    2.2025002167e-02
    1.3049299596e-03    2.2216001526e-02
    1.3099299977e-03    2.2396000102e-02
    1.3149400475e-03    2.2564003244e-02
    1.3199499808e-03    2.2719001397e-02
    1.3249500189e-03    2.2861000150e-02
    1.3299599523e-03    2.2992001846e-02
    1.3349700021e-03    2.3114001378e-02
    1.3399700401e-03    2.3227002472e-02
    1.3449799735e-03    2.3334002122e-02
    1.3499800116e-03    2.3435000330e-02
    1.3549899450e-03    2.3530000821e-02
    1.3599999947e-03    2.3619001731e-02
    1.3647499727e-03    2.3695001379e-02
    1.3697600225e-03    2.3766001686e-02
    1.3747599442e-03    2.3826003075e-02
    1.3797699939e-03    2.3875001818e-02
    1.3847800437e-03    2.3913001642e-02
    1.3897799654e-03    2.3941000924e-02
    1.3947900152e-03    2.3959999904e-02
    1.3997900533e-03    2.3975001648e-02
    1.4047999866e-03    2.3987000808e-02
    1.4098100364e-03    2.3999001831e-02
    1.4148099581e-03    2.4015001953e-02
    1.4198200079e-03    2.4036001414e-02
    1.4248200459e-03    2.4063002318e-02
    1.4298299793e-03    2.4097001180e-02
    1.4348400291e-03    2.4136001244e-02
    1.4398399508e-03    2.4181002751e-02
    1.4448500006e-03    2.4229001254e-02
    1.4498500386e-03    2.4279002100e-02
    1.4548599720e-03    2.4330003187e-02
    1.4598600101e-03    2.4380002171e-02
    1.4648699434e-03    2.4430003017e-02
    1.4698699815e-03    2.4477001280e-02
    1.4748800313e-03    2.4523003027e-02
    1.4798899647e-03    2.4565001950e-02
    1.4848900028e-03    2.4605002254e-02
    1.4899000525e-03    2.4642001837e-02
    1.4949099859e-03    2.4677000940e-02
    1.4999100240e-03    2.4710001424e-02
    1.5049199574e-03    2.4743000045e-02
    1.5099300072e-03    2.4776002392e-02
    1.5149300452e-03    2.4810001254e-02
    1.5199399786e-03    2.4847000837e-02
    1.5249500284e-03    2.4886002764e-02
    1.5299499501e-03    2.4929000065e-02
    1.5349599998e-03    2.4977002293e-02
    1.5399700496e-03    2.5028001517e-02
    1.5449699713e-03    2.5084001943e-02
    1.5499800211e-03    2.5143003091e-02
    1.5549899545e-03    2.5205001235e-02
    1.5600000042e-03    2.5270001963e-02
    1.5647499822e-03    2.5334002450e-02
    1.5697600320e-03    2.5402002037e-02
    1.5747699654e-03    2.5471001863e-02
    1.5797800152e-03    2.5540001690e-02
    1.5847800532e-03    2.5609001517e-02
    1.5897899866e-03    2.5677001104e-02
    1.5948000364e-03    2.5745002553e-02
    1.5998099698e-03    2.5812000036e-02
    1.6048200196e-03    2.5879001245e-02
    1.6098299529e-03    2.5946000591e-02
    1.6148299910e-03    2.6014000177e-02
    1.6198400408e-03    2.6085002348e-02
    1.6248499742e-03    2.6159001514e-02
    1.6298600240e-03    2.6238001883e-02
    1.6348699573e-03    2.6322001591e-02
    1.6398800071e-03    2.6414003223e-02
    1.6448900569e-03    2.6513000950e-02
    1.6498899786e-03    2.6621002704e-02
    1.6549000284e-03    2.6736000553e-02
    1.6599099617e-03    2.6860002428e-02
    1.6649200115e-03    2.6991002262e-02
    1.6699299449e-03    2.7130002156e-02
    1.6749399947e-03    2.7275001630e-02
    1.6799500445e-03    2.7427002788e-02
    1.6849599779e-03    2.7585003525e-02
    1.6899700277e-03    2.7747001499e-02
    1.6949799610e-03    2.7914000675e-02
    1.6999900108e-03    2.8083002195e-02
    1.7049999442e-03    2.8253002092e-02
    1.7097600503e-03    2.8414001688e-02
    1.7147699837e-03    2.8581000865e-02
    1.7197800335e-03    2.8743002564e-02
    1.7247899668e-03    2.8899000958e-02
    1.7298000166e-03    2.9048001394e-02
    1.7348099500e-03    2.9186002910e-02
    1.7398199998e-03    2.9314002022e-02
    1.7448300496e-03    2.9431002215e-02
    1.7498399829e-03    2.9535003006e-02
    1.7548500327e-03    2.9627000913e-02
    1.7598599661e-03    2.9708001763e-02
    1.7648700159e-03    2.9778001830e-02
    1.7698899610e-03    2.9837002978e-02
    1.7749000108e-03    2.9887001961e-02
    1.7799099442e-03    2.9929000884e-02
    1.7849199940e-03    2.9964003712e-02
    1.7899300437e-03    2.9992002994e-02
    1.7949499888e-03    3.0016003177e-02
    1.7999600386e-03    3.0036000535e-02
    1.8049699720e-03    3.0054001138e-02
    1.8099900335e-03    3.0071003363e-02
    1.8149999669e-03    3.0089002103e-02
    1.8197599566e-03    3.0106002465e-02
    1.8247800181e-03    3.0126001686e-02
    1.8297899514e-03    3.0149001628e-02
    1.8348100130e-03    3.0174002051e-02
    1.8398199463e-03    3.0202003196e-02
    1.8448400078e-03    3.0232002959e-02
    1.8498500576e-03    3.0265001580e-02
    1.8548700027e-03    3.0298002064e-02
    1.8598800525e-03    3.0333001167e-02
    1.8648999976e-03    3.0368002132e-02
    1.8699100474e-03    3.0404003337e-02
    1.8749299925e-03    3.0440000817e-02
    1.8799500540e-03    3.0476002023e-02
    1.8849599874e-03    3.0513003469e-02
    1.8899800489e-03    3.0551001430e-02
    1.8949899822e-03    3.0589003116e-02
    1.8997599836e-03    3.0627002940e-02
    1.9047800452e-03    3.0668003485e-02
    1.9097899785e-03    3.0709002167e-02
    1.9148100400e-03    3.0751001090e-02
    1.9198299851e-03    3.0794002116e-02
    1.9248400349e-03    3.0837001279e-02
    1.9298599800e-03    3.0880002305e-02
    1.9348800415e-03    3.0924003571e-02
    1.9398899749e-03    3.0968002975e-02
    1.9449100364e-03    3.1014000997e-02
    1.9499299815e-03    3.1061002985e-02
    1.9549499266e-03    3.1110003591e-02
    1.9599599764e-03    3.1162001193e-02
    1.9649800379e-03    3.1217003241e-02
    1.9700000994e-03    3.1275004148e-02
    1.9747701008e-03    3.1334001571e-02
    1.9797799177e-03    3.1399000436e-02
    1.9847999793e-03    3.1467001885e-02
    1.9898200408e-03    3.1538002193e-02
    1.9948401023e-03    3.1612001359e-02
    1.9998599309e-03    3.1687002629e-02
    2.0048799925e-03    3.1764000654e-02
    2.0099000540e-03    3.1843002886e-02
    2.0149101038e-03    3.1924001873e-02
    2.0199299324e-03    3.2005000859e-02
    2.0249499939e-03    3.2089002430e-02
    2.0299700554e-03    3.2174002379e-02
    2.0349898841e-03    3.2260004431e-02
    2.0397598855e-03    3.2343000174e-02
    2.0447799470e-03    3.2432001084e-02
    2.0498000085e-03    3.2522000372e-02
    2.0548200700e-03    3.2615002245e-02
    2.0598398987e-03    3.2711002976e-02
    2.0648599602e-03    3.2810002565e-02
    2.0698800217e-03    3.2913003117e-02
    2.0749000832e-03    3.3020004630e-02
    2.0799199119e-03    3.3131003380e-02
    2.0849399734e-03    3.3247005194e-02
    2.0899600349e-03    3.3366002142e-02
    2.0949800964e-03    3.3488001674e-02
    2.1000099368e-03    3.3613003790e-02
    2.1047799382e-03    3.3733002841e-02
    2.1097999997e-03    3.3860001713e-02
    2.1148200613e-03    3.3987000585e-02
    2.1198398899e-03    3.4112002701e-02
    2.1248599514e-03    3.4237004817e-02
    2.1298900247e-03    3.4359000623e-02
    2.1349100862e-03    3.4478001297e-02
    2.1399299148e-03    3.4593001008e-02
    2.1449499764e-03    3.4705001861e-02
    2.1499800496e-03    3.4812003374e-02
    2.1550001111e-03    3.4915000200e-02
    2.1597798914e-03    3.5009004176e-02
    2.1647999529e-03    3.5103000700e-02
    2.1698200144e-03    3.5194002092e-02
    2.1748500876e-03    3.5282000899e-02
    2.1798799280e-03    3.5368002951e-02
    2.1848999895e-03    3.5453002900e-02
    2.1899300627e-03    3.5538002849e-02
    2.1949498914e-03    3.5621002316e-02
    2.1999799646e-03    3.5703003407e-02
    2.2050100379e-03    3.5783004016e-02
    2.2097800393e-03    3.5857003182e-02
    2.2148101125e-03    3.5931002349e-02
    2.2198399529e-03    3.6001004279e-02
    2.2248700261e-03    3.6067001522e-02
    2.2299000993e-03    3.6129001528e-02
    2.2349199280e-03    3.6187004298e-02
    2.2399500012e-03    3.6240004003e-02
    2.2449800745e-03    3.6290001124e-02
    2.2497600876e-03    3.6334000528e-02
    2.2547899280e-03    3.6375004798e-02
    2.2598200012e-03    3.6412004381e-02
    2.2648600861e-03    3.6445003003e-02
    2.2698899265e-03    3.6472003907e-02
    2.2749199998e-03    3.6494001746e-02
    2.2799500730e-03    3.6513000727e-02
    2.2849899251e-03    3.6529000849e-02
    2.2897699382e-03    3.6543000489e-02
    2.2948000114e-03    3.6559004337e-02
    2.2998400964e-03    3.6577004939e-02
    2.3048699368e-03    3.6598004401e-02
    2.3099100217e-03    3.6624003202e-02
    2.3149400949e-03    3.6655001342e-02
    2.3199799471e-03    3.6691002548e-02
    2.3247599602e-03    3.6729000509e-02
    2.3298000451e-03    3.6772001535e-02
    2.3348298855e-03    3.6818001419e-02
    2.3398699705e-03    3.6865003407e-02
    2.3449000437e-03    3.6913000047e-02
    2.3499398958e-03    3.6961004138e-02
    2.3549799807e-03    3.7009004503e-02
    2.3597599939e-03    3.7054002285e-02
    2.3648000788e-03    3.7101000547e-02
    2.3698399309e-03    3.7147004157e-02
    2.3748700041e-03    3.7193004042e-02
    2.3799100891e-03    3.7239003927e-02
    2.3849499412e-03    3.7284001708e-02
    2.3899800144e-03    3.7330001593e-02
    2.3947700392e-03    3.7373002619e-02
    2.3998098914e-03    3.7420004606e-02
    2.4048499763e-03    3.7468001246e-02
    2.4098800495e-03    3.7519000471e-02
    2.4149199016e-03    3.7572003901e-02
    2.4199599866e-03    3.7629004568e-02
    2.4250000715e-03    3.7689000368e-02
    2.4297900964e-03    3.7749003619e-02
    2.4348199368e-03    3.7814002484e-02
    2.4398600217e-03    3.7882000208e-02
    2.4449001066e-03    3.7951003760e-02
    2.4499399588e-03    3.8021001965e-02
    2.4549800437e-03    3.8092002273e-02
    2.4597700685e-03    3.8162004203e-02
    2.4648099206e-03    3.8238003850e-02
    2.4698500056e-03    3.8317002356e-02
    2.4748900905e-03    3.8401003927e-02
    2.4799299426e-03    3.8489002734e-02
    2.4849700276e-03    3.8584005088e-02
    2.4897600524e-03    3.8678999990e-02
    2.4947999045e-03    3.8784004748e-02
    2.4998399895e-03    3.8893003017e-02
    2.5048800744e-03    3.9006002247e-02
    2.5099199265e-03    3.9120003581e-02
    2.5149600115e-03    3.9235003293e-02
    2.5200000964e-03    3.9350003004e-02
    2.5247898884e-03    3.9458002895e-02
    2.5298399851e-03    3.9570003748e-02
    2.5348800700e-03    3.9680000395e-02
    2.5399199221e-03    3.9788004011e-02
    2.5449600071e-03    3.9896003902e-02
    2.5500000920e-03    4.0003001690e-02
    2.5547898840e-03    4.0105003864e-02
    2.5598399807e-03    4.0213000029e-02
    2.5648800656e-03    4.0321003646e-02
    2.5699199177e-03    4.0431000292e-02
    2.5749700144e-03    4.0542002767e-02
    2.5797600392e-03    4.0648002177e-02
    2.5847998913e-03    4.0760006756e-02
    2.5898499880e-03    4.0872003883e-02
    2.5948900729e-03    4.0982000530e-02
    2.5999399368e-03    4.1090004146e-02
    2.6049800217e-03    4.1195005178e-02
    2.6097700465e-03    4.1291002184e-02
    2.6148199104e-03    4.1388999671e-02
    2.6198700070e-03    4.1482001543e-02
    2.6249100920e-03    4.1570004076e-02
    2.6299599558e-03    4.1654001921e-02
    2.6350000408e-03    4.1732005775e-02
    2.6398000773e-03    4.1803006083e-02
    2.6448499411e-03    4.1873004287e-02
    2.6498900261e-03    4.1939005256e-02
    2.6549398899e-03    4.1999999434e-02
    2.6599899866e-03    4.2058002204e-02
    2.6647900231e-03    4.2110003531e-02
    2.6698398869e-03    4.2162001133e-02
    2.6748899836e-03    4.2210005224e-02
    2.6799400803e-03    4.2255003005e-02
    2.6849899441e-03    4.2298004031e-02
    2.6897899806e-03    4.2336005718e-02
    2.6948400773e-03    4.2374003679e-02
    2.6998899411e-03    4.2409002781e-02
    2.7049400378e-03    4.2443003505e-02
    2.7099899016e-03    4.2474001646e-02
    2.7147899382e-03    4.2501002550e-02
    2.7198400348e-03    4.2527001351e-02
    2.7248898987e-03    4.2550999671e-02
    2.7299500071e-03    4.2573001236e-02
    2.7350001037e-03    4.2594000697e-02
    2.7397999074e-03    4.2613003403e-02
    2.7448500041e-03    4.2633000761e-02
    2.7499001008e-03    4.2654003948e-02
    2.7549599763e-03    4.2676001787e-02
    2.7600100730e-03    4.2700003833e-02
    2.7648101095e-03    4.2726006359e-02
    2.7698599733e-03    4.2755000293e-02
    2.7749200817e-03    4.2787000537e-02
    2.7799699455e-03    4.2821004987e-02
    2.7847699821e-03    4.2856004089e-02
    2.7898300905e-03    4.2896002531e-02
    2.7948799543e-03    4.2937006801e-02
    2.7999300510e-03    4.2980000377e-02
    2.8049899265e-03    4.3024003506e-02
    2.8097899631e-03    4.3067004532e-02
    2.8148400597e-03    4.3114002794e-02
    2.8198999353e-03    4.3161004782e-02
    2.8249500319e-03    4.3209001422e-02
    2.8300099075e-03    4.3258003891e-02
    2.8348099440e-03    4.3305005878e-02
    2.8398700524e-03    4.3354999274e-02
    2.8449199162e-03    4.3407004327e-02
    2.8499800246e-03    4.3459001929e-02
    2.8547800612e-03    4.3510001153e-02
    2.8598399367e-03    4.3564002961e-02
    2.8649000451e-03    4.3621003628e-02
    2.8699499089e-03    4.3679002672e-02
    2.8750100173e-03    4.3739002198e-02
    2.8798200656e-03    4.3798003346e-02
    2.8848699294e-03    4.3863002211e-02
    2.8899300378e-03    4.3929003179e-02
    2.8949899133e-03    4.3998003006e-02
    2.8997899499e-03    4.4066004455e-02
    2.9048500583e-03    4.4140003622e-02
    2.9099099338e-03    4.4216003269e-02
    2.9149700422e-03    4.4295005500e-02
    2.9197700787e-03    4.4373005629e-02
    2.9248299543e-03    4.4457003474e-02
    2.9298900627e-03    4.4544003904e-02
    2.9349499382e-03    4.4634003192e-02
    2.9400100466e-03    4.4727999717e-02
    2.9448100831e-03    4.4820003211e-02
    2.9498699587e-03    4.4920004904e-02
    2.9549300671e-03    4.5023001730e-02
    2.9599899426e-03    4.5130003244e-02
    2.9647999909e-03    4.5233003795e-02
    2.9698600993e-03    4.5345004648e-02
    2.9749199748e-03    4.5458003879e-02
    2.9799800832e-03    4.5573003590e-02
    2.9847898986e-03    4.5683000237e-02
    2.9898500070e-03    4.5800004154e-02
    2.9949101154e-03    4.5916002244e-02
    2.9999699909e-03    4.6033002436e-02
    3.0047800392e-03    4.6143002808e-02
    3.0098399147e-03    4.6259000897e-02
    3.0149100348e-03    4.6373002231e-02
    3.0199699104e-03    4.6487007290e-02
    3.0247799587e-03    4.6594001353e-02
    3.0298400670e-03    4.6705000103e-02
    3.0348999426e-03    4.6815004200e-02
    3.0399700627e-03    4.6924002469e-02
    3.0447801109e-03    4.7025002539e-02
    3.0498399865e-03    4.7129999846e-02
    3.0549000949e-03    4.7232002020e-02
    3.0599699821e-03    4.7332003713e-02
    3.0647800304e-03    4.7424003482e-02
    3.0698499177e-03    4.7518003732e-02
    3.0749100260e-03    4.7609005123e-02
    3.0799799133e-03    4.7696001828e-02
    3.0847899616e-03    4.7776002437e-02
    3.0898600817e-03    4.7857001424e-02
    3.0949199572e-03    4.7934003174e-02
    3.0999900773e-03    4.8007003963e-02
    3.1048099045e-03    4.8074007034e-02
    3.1098700128e-03    4.8140004277e-02
    3.1149399001e-03    4.8204004765e-02
    3.1200100202e-03    4.8264000565e-02
    3.1248300802e-03    4.8318002373e-02
    3.1298999675e-03    4.8371002078e-02
    3.1349700876e-03    4.8421006650e-02
    3.1397899147e-03    4.8465002328e-02
    3.1448600348e-03    4.8509005457e-02
    3.1499299221e-03    4.8548005521e-02
    3.1550000422e-03    4.8584003001e-02
    3.1598201022e-03    4.8615001142e-02
    3.1648899894e-03    4.8645004630e-02
    3.1699698884e-03    4.8670999706e-02
    3.1747899484e-03    4.8694003373e-02
    3.1798600685e-03    4.8715002835e-02
    3.1849399675e-03    4.8735003918e-02
    3.1900100876e-03    4.8755005002e-02
    3.1948299147e-03    4.8773001879e-02
    3.1999100465e-03    4.8793002963e-02
    3.2049799338e-03    4.8814006150e-02
    3.2097999938e-03    4.8836003989e-02
    3.2148798928e-03    4.8862002790e-02
    3.2199500129e-03    4.8891004175e-02
    3.2247800846e-03    4.8922002316e-02
    3.2298499718e-03    4.8957001418e-02
    3.2349301036e-03    4.8995003104e-02
    3.2399999909e-03    4.9037002027e-02
    3.2448300626e-03    4.9079000950e-02
    3.2498999499e-03    4.9125000834e-02
    3.2549800817e-03    4.9173004925e-02
    3.2597999088e-03    4.9220003188e-02
    3.2648800407e-03    4.9271006137e-02
    3.2699599396e-03    4.9323003739e-02
    3.2747799996e-03    4.9373004586e-02
    3.2798598986e-03    4.9426000565e-02
    3.2849400304e-03    4.9481004477e-02
    3.2900099177e-03    4.9536004663e-02
    3.2948399894e-03    4.9590006471e-02
    3.2999198884e-03    4.9648001790e-02
    3.3050000202e-03    4.9708001316e-02
    3.3098200802e-03    4.9767002463e-02
    3.3148999792e-03    4.9831002951e-02
    3.3199801110e-03    4.9897000194e-02
    3.3247999381e-03    4.9961004406e-02
    3.3298800699e-03    5.0032004714e-02
    3.3349599689e-03    5.0104003400e-02
    3.3397900406e-03    5.0175003707e-02
    3.3448699396e-03    5.0252001733e-02
    3.3499500714e-03    5.0330001861e-02
    3.3547799103e-03    5.0406001508e-02
    3.3598600421e-03    5.0488002598e-02
    3.3649399411e-03    5.0571002066e-02
    3.3697700128e-03    5.0652001053e-02
    3.3748499118e-03    5.0738003105e-02
    3.3799300436e-03    5.0826005638e-02
    3.3850099426e-03    5.0915002823e-02
    3.3898400143e-03    5.1001004875e-02
    3.3949199133e-03    5.1094003022e-02
    3.4000000451e-03    5.1188006997e-02
    3.4048298839e-03    5.1280003041e-02
    3.4099100158e-03    5.1379002631e-02
    3.4149999265e-03    5.1480002701e-02
    3.4198299982e-03    5.1579002291e-02
    3.4249098971e-03    5.1686003804e-02
    3.4299900290e-03    5.1795005798e-02
    3.4348201007e-03    5.1901005208e-02
    3.4398999996e-03    5.2013006061e-02
    3.4449899103e-03    5.2128005773e-02
    3.4498199821e-03    5.2237004042e-02
    3.4549001139e-03    5.2352003753e-02
    3.4599900246e-03    5.2468001842e-02
    3.4648200963e-03    5.2576001734e-02
    3.4698999953e-03    5.2689004689e-02
    3.4749899060e-03    5.2800007164e-02
    3.4798199777e-03    5.2904002368e-02
    3.4849098884e-03    5.3011000156e-02
    3.4899900202e-03    5.3115002811e-02
    3.4948301036e-03    5.3211007267e-02
    3.4999100026e-03    5.3309004754e-02
    3.5049999133e-03    5.3405001760e-02
    3.5098299850e-03    5.3493004292e-02
    3.5149198957e-03    5.3582005203e-02
    3.5200100392e-03    5.3669001907e-02
    3.5248401109e-03    5.3748004138e-02
    3.5299300216e-03    5.3829006851e-02
    3.5347701050e-03    5.3902003914e-02
    3.5398600157e-03    5.3976006806e-02
    3.5449499264e-03    5.4047003388e-02
    3.5497799981e-03    5.4110001773e-02
    3.5548799206e-03    5.4173007607e-02
    3.5599700641e-03    5.4233003408e-02
    3.5648099147e-03    5.4286003113e-02
    3.5699000582e-03    5.4337006062e-02
    3.5749899689e-03    5.4386004806e-02
    3.5798300523e-03    5.4428003728e-02
    3.5849199630e-03    5.4470002651e-02
    3.5900198855e-03    5.4508004338e-02
    3.5948599689e-03    5.4542001337e-02
    3.5999501124e-03    5.4574001580e-02
    3.6047899630e-03    5.4602000862e-02
    3.6098801065e-03    5.4629005492e-02
    3.6149800289e-03    5.4654005915e-02
    3.6198201124e-03    5.4676003754e-02
    3.6249100231e-03    5.4697003216e-02
    3.6300099455e-03    5.4718002677e-02
    3.6348500289e-03    5.4737005383e-02
    3.6399399396e-03    5.4758004844e-02
    3.6447800230e-03    5.4778002203e-02
    3.6498799454e-03    5.4801005870e-02
    3.6549700890e-03    5.4826006293e-02
    3.6598099396e-03    5.4852001369e-02
    3.6649100948e-03    5.4881002754e-02
    3.6700000055e-03    5.4911002517e-02
    3.6748400889e-03    5.4942004383e-02
    3.6799400114e-03    5.4977007210e-02
    3.6847800948e-03    5.5011004210e-02
    3.6898800172e-03    5.5048003793e-02
    3.6949799396e-03    5.5086005479e-02
    3.6998200230e-03    5.5124007165e-02
    3.7049199454e-03    5.5165003985e-02
    3.7100100890e-03    5.5207002908e-02
    3.7148599513e-03    5.5248003453e-02
    3.7199500948e-03    5.5294003338e-02
    3.7247999571e-03    5.5338006467e-02
    3.7298901007e-03    5.5387005210e-02
    3.7349900231e-03    5.5438004434e-02
    3.7398398854e-03    5.5489003658e-02
    3.7449400406e-03    5.5545005947e-02
    3.7497798912e-03    5.5599000305e-02
    3.7548800465e-03    5.5659003556e-02
    3.7599799689e-03    5.5722001940e-02
    3.7648200523e-03    5.5783003569e-02
    3.7699199747e-03    5.5849004537e-02
    3.7747700699e-03    5.5914007127e-02
    3.7798699923e-03    5.5984005332e-02
    3.7849699147e-03    5.6055005640e-02
    3.7898099981e-03    5.6125007570e-02
    3.7949199323e-03    5.6201003492e-02
    3.8000200875e-03    5.6278005242e-02
    3.8048599381e-03    5.6352004409e-02
    3.8099600933e-03    5.6433003396e-02
    3.8148099557e-03    5.6512001902e-02
    3.8199101109e-03    5.6596003473e-02
    3.8250100333e-03    5.6683003902e-02
    3.8298598956e-03    5.6766003370e-02
    3.8349600509e-03    5.6857004762e-02
    3.8398099132e-03    5.6944001466e-02
    3.8449100684e-03    5.7038005441e-02
    3.8500200026e-03    5.7133007795e-02
    3.8548700977e-03    5.7225003839e-02
    3.8599700201e-03    5.7324003428e-02
    3.8648201153e-03    5.7419002056e-02
    3.8699200377e-03    5.7520002127e-02
    3.8747699000e-03    5.7618003339e-02
    3.8798800670e-03    5.7722005993e-02
    3.8849799894e-03    5.7828005403e-02
    3.8898300845e-03    5.7929005474e-02
    3.8949300069e-03    5.8037005365e-02
    3.8997801021e-03    5.8141000569e-02
    3.9048900362e-03    5.8252006769e-02
    3.9099999703e-03    5.8363001794e-02
    3.9148498327e-03    5.8470007032e-02
    3.9199502207e-03    5.8582004160e-02
    3.9248000830e-03    5.8689001948e-02
    3.9299097843e-03    5.8801002800e-02
    3.9350199513e-03    5.8912005275e-02
    3.9398698136e-03    5.9017002583e-02
    3.9449799806e-03    5.9126004577e-02
    3.9498298429e-03    5.9228003025e-02
    3.9549400099e-03    5.9334006160e-02
    3.9597898722e-03    5.9431005269e-02
    3.9649000391e-03    5.9532001615e-02
    3.9700102061e-03    5.9629004449e-02
    3.9748698473e-03    5.9718001634e-02
    3.9799800143e-03    5.9809003025e-02
    3.9848298766e-03    5.9891004115e-02
    3.9899400435e-03    5.9974003583e-02
    3.9948001504e-03    6.0050006956e-02
    3.9999098517e-03    6.0125000775e-02
    4.0047699586e-03    6.0193005949e-02
    4.0098801255e-03    6.0260005295e-02
    4.0149898268e-03    6.0323003680e-02
    4.0198499337e-03    6.0379002243e-02
    4.0249601007e-03    6.0434002429e-02
    4.0298202075e-03    6.0483001173e-02
    4.0349401534e-03    6.0531005263e-02
    4.0397997946e-03    6.0574006289e-02
    4.0449202061e-03    6.0615006834e-02
    4.0497798473e-03    6.0652002692e-02
    4.0548900142e-03    6.0688003898e-02
    4.0600099601e-03    6.0722000897e-02
    4.0648700669e-03    6.0751002282e-02
    4.0699900128e-03    6.0780003667e-02
    4.0748501197e-03    6.0805004090e-02
    4.0799700655e-03    6.0831002891e-02
    4.0848301724e-03    6.0853004456e-02
    4.0899501182e-03    6.0877002776e-02
    4.0948200040e-03    6.0899004340e-02
    4.0999301709e-03    6.0923002660e-02
    4.1048000567e-03    6.0947004706e-02
    4.1099200025e-03    6.0974005610e-02
    4.1147801094e-03    6.1002004892e-02
    4.1199000552e-03    6.1033006757e-02
    4.1247601621e-03    6.1065007001e-02
    4.1298801079e-03    6.1101000756e-02
    4.1350000538e-03    6.1138004065e-02
    4.1398699395e-03    6.1176005751e-02
    4.1449898854e-03    6.1217002571e-02
    4.1498499922e-03    6.1258006841e-02
    4.1549801826e-03    6.1302002519e-02
    4.1598398238e-03    6.1345003545e-02
    4.1649597697e-03    6.1391003430e-02
    4.1698301211e-03    6.1437007040e-02
    4.1749500670e-03    6.1486005783e-02
    4.1798199527e-03    6.1534002423e-02
    4.1849398986e-03    6.1587005854e-02
    4.1898000054e-03    6.1638001353e-02
    4.1949301958e-03    6.1695002019e-02
    4.1997898370e-03    6.1751004308e-02
    4.2049200274e-03    6.1812005937e-02
    4.2097801343e-03    6.1872005463e-02
    4.2149098590e-03    6.1937004328e-02
    4.2197802104e-03    6.2002006918e-02
    4.2249001563e-03    6.2072005123e-02
    4.2297700420e-03    6.2140006572e-02
    4.2348899879e-03    6.2213007361e-02
    4.2397598736e-03    6.2285002321e-02
    4.2448900640e-03    6.2362004071e-02
    4.2497501709e-03    6.2436003238e-02
    4.2548798956e-03    6.2516003847e-02
    4.2600100860e-03    6.2596999109e-02
    4.2648799717e-03    6.2676005065e-02
    4.2699999176e-03    6.2760002911e-02
    4.2748698033e-03    6.2841005623e-02
    4.2799999937e-03    6.2928006053e-02
    4.2848698795e-03    6.3013002276e-02
    4.2899898253e-03    6.3103005290e-02
    4.2948699556e-03    6.3190005720e-02
    4.2999899015e-03    6.3283003867e-02
    4.3048597872e-03    6.3372999430e-02
    4.3099899776e-03    6.3469007611e-02
    4.3148598634e-03    6.3562005758e-02
    4.3199900538e-03    6.3661001623e-02
    4.3248599395e-03    6.3756003976e-02
    4.3299901299e-03    6.3858002424e-02
    4.3348600157e-03    6.3955008984e-02
    4.3399902061e-03    6.4058005810e-02
    4.3448698707e-03    6.4157001674e-02
    4.3500000611e-03    6.4261004329e-02
    4.3548699468e-03    6.4361006021e-02
    4.3600001372e-03    6.4466007054e-02
    4.3648700230e-03    6.4565002918e-02
    4.3697501533e-03    6.4665004611e-02
    4.3748798780e-03    6.4770005643e-02
    4.3797502294e-03    6.4869001508e-02
    4.3848799542e-03    6.4973004162e-02
    4.3897600845e-03    6.5070003271e-02
    4.3948898092e-03    6.5172001719e-02
    4.3997699395e-03    6.5268009901e-02
    4.4049001299e-03    6.5368004143e-02
    4.4097797945e-03    6.5460003912e-02
    4.4149099849e-03    6.5556004643e-02
    4.4197901152e-03    6.5646007657e-02
    4.4249198399e-03    6.5737001598e-02
    4.4297999702e-03    6.5821006894e-02
    4.4349301606e-03    6.5907008946e-02
    4.4398098253e-03    6.5986007452e-02
    4.4449497946e-03    6.6065005958e-02
    4.4498299249e-03    6.6137000918e-02
    4.4549601153e-03    6.6209003329e-02
    4.4598397799e-03    6.6274002194e-02
    4.4649802148e-03    6.6337004304e-02
    4.4698598795e-03    6.6394001245e-02
    4.4747497886e-03    6.6446006298e-02
    4.4798799790e-03    6.6497005522e-02
    4.4847698882e-03    6.6542007029e-02
    4.4899098575e-03    6.6585004330e-02
    4.4947899878e-03    6.6621005535e-02
    4.4999299571e-03    6.6656000912e-02
    4.5048100874e-03    6.6685006022e-02
    4.5099500567e-03    6.6713005304e-02
    4.5148301870e-03    6.6736005247e-02
    4.5199701563e-03    6.6758006811e-02
    4.5248498209e-03    6.6777005792e-02
    4.5299897902e-03    6.6797003150e-02
    4.5348801650e-03    6.6816002131e-02
    4.5397598296e-03    6.6835001111e-02
    4.5448997989e-03    6.6858008504e-02
    4.5497901738e-03    6.6881000996e-02
    4.5549301431e-03    6.6908009350e-02
    4.5598098077e-03    6.6936008632e-02
    4.5649497770e-03    6.6969007254e-02
    4.5698401518e-03    6.7002005875e-02
    4.5749801211e-03    6.7039005458e-02
    4.5798597857e-03    6.7075006664e-02
    4.5847501606e-03    6.7112006247e-02
    4.5898901299e-03    6.7152000964e-02
    4.5947697945e-03    6.7190006375e-02
    4.5999200083e-03    6.7230008543e-02
    4.6048001386e-03    6.7269004881e-02
    4.6099401079e-03    6.7308999598e-02
    4.6148300171e-03    6.7348003387e-02
    4.6199699864e-03    6.7389003932e-02
    4.6248598956e-03    6.7429006100e-02
    4.6297498047e-03    6.7470006645e-02
    4.6348897740e-03    6.7514002323e-02
    4.6397801489e-03    6.7558005452e-02
    4.6449201182e-03    6.7607007921e-02
    4.6498100273e-03    6.7655004561e-02
    4.6549597755e-03    6.7708007991e-02
    4.6598399058e-03    6.7760005593e-02
    4.6649901196e-03    6.7818000913e-02
    4.6698800288e-03    6.7876003683e-02
    4.6747699380e-03    6.7935004830e-02
    4.6799099073e-03    6.8000003695e-02
    4.6847998165e-03    6.8064004183e-02
    4.6899500303e-03    6.8134002388e-02
    4.6948399395e-03    6.8203002214e-02
    4.6999799088e-03    6.8277999759e-02
    4.7048698179e-03    6.8351007998e-02
    4.7097601928e-03    6.8426005542e-02
    4.7149099410e-03    6.8507000804e-02
    4.7197998501e-03    6.8587005138e-02
    4.7249500640e-03    6.8673007190e-02
    4.7298399732e-03    6.8756006658e-02
    4.7347298823e-03    6.8842008710e-02
    4.7398800962e-03    6.8934008479e-02
    4.7447700053e-03    6.9023005664e-02
    4.7499202192e-03    6.9118000567e-02
    4.7548101284e-03    6.9210007787e-02
    4.7599598765e-03    6.9308005273e-02
    4.7648600303e-03    6.9402001798e-02
    4.7697499394e-03    6.9497004151e-02
    4.7749001533e-03    6.9598004222e-02
    4.7797900625e-03    6.9694004953e-02
    4.7849398106e-03    6.9796003401e-02
    4.7898399644e-03    6.9893002510e-02
    4.7947298735e-03    6.9990009069e-02
    4.7998800874e-03    7.0092007518e-02
    4.8047797754e-03    7.0190005004e-02
    4.8099299893e-03    7.0293009281e-02
    4.8148198985e-03    7.0391006768e-02
    4.8199798912e-03    7.0494003594e-02
    4.8248698004e-03    7.0593006909e-02
    4.8297699541e-03    7.0692002773e-02
    4.8349201679e-03    7.0796005428e-02
    4.8398198560e-03    7.0894002914e-02
    4.8449700698e-03    7.0998005569e-02
    4.8498702236e-03    7.1096003056e-02
    4.8547699116e-03    7.1193002164e-02
    4.8599201255e-03    7.1295000613e-02
    4.8648198135e-03    7.1391008794e-02
    4.8699700274e-03    7.1490004659e-02
    4.8748701811e-03    7.1583002806e-02
    4.8797698691e-03    7.1674004197e-02
    4.8849298619e-03    7.1768000722e-02
    4.8898300156e-03    7.1855999529e-02
    4.8947301693e-03    7.1941003203e-02
    4.8998901621e-03    7.2028003633e-02
    4.9047898501e-03    7.2108007967e-02
    4.9099498428e-03    7.2189010680e-02
    4.9148499966e-03    7.2263002396e-02
    4.9197501503e-03    7.2334006429e-02
    4.9249101430e-03    7.2405003011e-02
    4.9298098311e-03    7.2469003499e-02
    4.9349800684e-03    7.2532005608e-02
    4.9398802221e-03    7.2588004172e-02
    4.9447901547e-03    7.2640001774e-02
    4.9499501474e-03    7.2690002620e-02
    4.9548498355e-03    7.2734005749e-02
    4.9597597681e-03    7.2774007916e-02
    4.9649202265e-03    7.2812005877e-02
    4.9698301591e-03    7.2845004499e-02
    4.9747400917e-03    7.2874002159e-02
    4.9799000844e-03    7.2901003063e-02
    4.9848100170e-03    7.2924003005e-02
    4.9899700098e-03    7.2947002947e-02
    4.9948799424e-03    7.2967007756e-02
    4.9997898750e-03    7.2987005115e-02
    5.0049498677e-03    7.3009006679e-02
    5.0098598003e-03    7.3031008244e-02
    5.0147701986e-03    7.3056004941e-02
    5.0199301913e-03    7.3084004223e-02
    5.0248401240e-03    7.3114007711e-02
    5.0297500566e-03    7.3147006333e-02
    5.0349198282e-03    7.3184005916e-02
    5.0398302265e-03    7.3222003877e-02
    5.0447401591e-03    7.3261000216e-02
    5.0499001518e-03    7.3305003345e-02
    5.0548100844e-03    7.3347009718e-02
    5.0597200170e-03    7.3390007019e-02
    5.0648897886e-03    7.3435999453e-02
    5.0698001869e-03    7.3480002582e-02
    5.0749699585e-03    7.3527008295e-02
    5.0798798911e-03    7.3572009802e-02
    5.0847898237e-03    7.3618009686e-02
    5.0899600610e-03    7.3667004704e-02
    5.0948699936e-03    7.3715008795e-02
    5.0997799262e-03    7.3764003813e-02
    5.1049501635e-03    7.3818005621e-02
    5.1098600961e-03    7.3870003223e-02
    5.1147700287e-03    7.3925003409e-02
    5.1199398004e-03    7.3984004557e-02
    5.1248501986e-03    7.4043005705e-02
    5.1297699101e-03    7.4103005230e-02
    5.1349401474e-03    7.4169009924e-02
    5.1398500800e-03    7.4233002961e-02
    5.1447600126e-03    7.4300006032e-02
    5.1499297842e-03    7.4371002614e-02
    5.1548499614e-03    7.4441000819e-02
    5.1597598940e-03    7.4512004852e-02
    5.1649301313e-03    7.4589006603e-02
    5.1698498428e-03    7.4664004147e-02
    5.1747597754e-03    7.4741005898e-02
    5.1799397916e-03    7.4823006988e-02
    5.1848501898e-03    7.4904002249e-02
    5.1897699013e-03    7.4986003339e-02
    5.1949401386e-03    7.5074002147e-02
    5.1998598501e-03    7.5160004199e-02
    5.2047697827e-03    7.5247004628e-02
    5.2099497989e-03    7.5341008604e-02
    5.2148601972e-03    7.5431004167e-02
    5.2197799087e-03    7.5523003936e-02
    5.2249501459e-03    7.5621001422e-02
    5.2298698574e-03    7.5715005398e-02
    5.2347900346e-03    7.5810000300e-02
    5.2399598062e-03    7.5911007822e-02
    5.2448799834e-03    7.6007001102e-02
    5.2498001605e-03    7.6103009284e-02
    5.2547198720e-03    7.6199010015e-02
    5.2598998882e-03    7.6300010085e-02
    5.2648098208e-03    7.6396003366e-02
    5.2697299980e-03    7.6491005719e-02
    5.2749100141e-03    7.6590001583e-02
    5.2798301913e-03    7.6684005558e-02
    5.2847499028e-03    7.6778009534e-02
    5.2899299189e-03    7.6876007020e-02
    5.2948500961e-03    7.6968006790e-02
    5.2997698076e-03    7.7061004937e-02
    5.3049498238e-03    7.7157005668e-02
    5.3098700009e-03    7.7249005437e-02
    5.3147901781e-03    7.7340006828e-02
    5.3197098896e-03    7.7430002391e-02
    5.3249001503e-03    7.7524006367e-02
    5.3298198618e-03    7.7612005174e-02
    5.3347400390e-03    7.7699005604e-02
    5.3399200551e-03    7.7788002789e-02
    5.3448500112e-03    7.7871002257e-02
    5.3497701883e-03    7.7952004969e-02
    5.3549599834e-03    7.8034006059e-02
    5.3598801605e-03    7.8110001981e-02
    5.3648101166e-03    7.8183002770e-02
    5.3697298281e-03    7.8252010047e-02
    5.3749200888e-03    7.8322008252e-02
    5.3798398003e-03    7.8385002911e-02
    5.3847702220e-03    7.8445009887e-02
    5.3899600171e-03    7.8505009413e-02
    5.3948801942e-03    7.8558005393e-02
    5.3998101503e-03    7.8608006239e-02
    5.4047401063e-03    7.8654006124e-02
    5.4099299014e-03    7.8699007630e-02
    5.4148500785e-03    7.8739002347e-02
    5.4197800346e-03    7.8775003552e-02
    5.4247099906e-03    7.8807003796e-02
    5.4298997857e-03    7.8838005662e-02
    5.4348302074e-03    7.8864008188e-02
    5.4397499189e-03    7.8889004886e-02
    5.4449401796e-03    7.8913010657e-02
    5.4498701356e-03    7.8936003149e-02
    5.4548000917e-03    7.8959003091e-02
    5.4597300477e-03    7.8983008862e-02
    5.4649198428e-03    7.9010002315e-02
    5.4698497988e-03    7.9037003219e-02
    5.4747802205e-03    7.9066008329e-02
    5.4797101766e-03    7.9097002745e-02
    5.4848901927e-03    7.9132005572e-02
    5.4898201488e-03    7.9166010022e-02
    5.4947501048e-03    7.9201005399e-02
    5.4999398999e-03    7.9239003360e-02
    5.5048698559e-03    7.9276002944e-02
    5.5097998120e-03    7.9313009977e-02
    5.5147400126e-03    7.9350002110e-02
    5.5199298076e-03    7.9389005899e-02
    5.5248602293e-03    7.9426005483e-02
    5.5297901854e-03    7.9464010894e-02
    5.5347201414e-03    7.9503007233e-02
    5.5399099365e-03    7.9544007778e-02
    5.5448398925e-03    7.9585008323e-02
    5.5497800931e-03    7.9627007246e-02
    5.5547100492e-03    7.9672001302e-02
    5.5598998442e-03    7.9721003771e-02
    5.5648400448e-03    7.9769007862e-02
    5.5697700009e-03    7.9820007086e-02
    5.5746999569e-03    7.9873003066e-02
    5.5798999965e-03    7.9932004213e-02
    5.5848299526e-03    7.9989008605e-02
    5.5897599086e-03    8.0048002303e-02
    5.5947001092e-03    8.0109000206e-02
    5.5998899043e-03    8.0175004900e-02
    5.6048301049e-03    8.0239005387e-02
    5.6097600609e-03    8.0304011703e-02
    5.6146997958e-03    8.0371007323e-02
    5.6198900566e-03    8.0443009734e-02
    5.6248297915e-03    8.0513007939e-02
    5.6297699921e-03    8.0584004521e-02
    5.6346999481e-03    8.0656997859e-02
    5.6398999877e-03    8.0736003816e-02
    5.6448401883e-03    8.0813005567e-02
    5.6497701444e-03    8.0893009901e-02
    5.6547098793e-03    8.0974005163e-02
    5.6599099189e-03    8.1062011421e-02
    5.6648501195e-03    8.1149004400e-02
    5.6697800756e-03    8.1237010658e-02
    5.6747198105e-03    8.1327006221e-02
    5.6799198501e-03    8.1425003707e-02
    5.6848600507e-03    8.1519007683e-02
    5.6897997856e-03    8.1616006792e-02
    5.6947399862e-03    8.1713005900e-02
    5.6999400258e-03    8.1817001104e-02
    5.7048802264e-03    8.1916004419e-02
    5.7098199613e-03    8.2016006112e-02
    5.7147601619e-03    8.2116007805e-02
    5.7196998969e-03    8.2216002047e-02
    5.7248999365e-03    8.2321003079e-02
    5.7298401371e-03    8.2421004772e-02
    5.7347798720e-03    8.2520008087e-02
    5.7397200726e-03    8.2619003952e-02
    5.7449201122e-03    8.2722000778e-02
    5.7498598471e-03    8.2819998264e-02
    5.7548098266e-03    8.2917012274e-02
    5.7597500272e-03    8.3013005555e-02
    5.7646902278e-03    8.3109006286e-02
    5.7699000463e-03    8.3208002150e-02
    5.7748397812e-03    8.3301007748e-02
    5.7797799818e-03    8.3393007517e-02
    5.7847299613e-03    8.3483003080e-02
    5.7899300009e-03    8.3577007055e-02
    5.7948799804e-03    8.3664000034e-02
    5.7998201810e-03    8.3749003708e-02
    5.8047701605e-03    8.3832003176e-02
    5.8097201400e-03    8.3914011717e-02
    5.8149201795e-03    8.3997011185e-02
    5.8198701590e-03    8.4075011313e-02
    5.8248201385e-03    8.4151007235e-02
    5.8297701180e-03    8.4226004779e-02
    5.8347098529e-03    8.4298007190e-02
    5.8399201371e-03    8.4371998906e-02
    5.8448701166e-03    8.4440007806e-02
    5.8498200960e-03    8.4506005049e-02
    5.8547700755e-03    8.4570005536e-02
    5.8597200550e-03    8.4631010890e-02
    5.8649401180e-03    8.4692008793e-02
    5.8698900975e-03    8.4746003151e-02
    5.8748400770e-03    8.4798008204e-02
    5.8797900565e-03    8.4846004844e-02
    5.8847400360e-03    8.4891013801e-02
    5.8896997944e-03    8.4932006896e-02
    5.8949100785e-03    8.4971003234e-02
    5.8998600580e-03    8.5005000234e-02
    5.9048198164e-03    8.5036009550e-02
    5.9097697958e-03    8.5064008832e-02
    5.9147197753e-03    8.5090003908e-02
    5.9199398383e-03    8.5115998983e-02
    5.9248898178e-03    8.5141003132e-02
    5.9298397973e-03    8.5165008903e-02
    5.9348000214e-03    8.5192009807e-02
    5.9397500008e-03    8.5219010711e-02
    5.9447102249e-03    8.5249006748e-02
    5.9499200433e-03    8.5284009576e-02
    5.9548798017e-03    8.5318006575e-02
    5.9598297812e-03    8.5354998708e-02
    5.9647802263e-03    8.5394009948e-02
    5.9697399847e-03    8.5434004664e-02
    5.9747002088e-03    8.5475005209e-02
    5.9799100272e-03    8.5519008338e-02
    5.9848697856e-03    8.5561007261e-02
    5.9898202308e-03    8.5603006184e-02
    5.9947799891e-03    8.5645005107e-02
    5.9997402132e-03    8.5688002408e-02
    6.0046901926e-03    8.5731007159e-02
    6.0099097900e-03    8.5776999593e-02
    6.0148700140e-03    8.5823006928e-02
    6.0198199935e-03    8.5870005190e-02
    6.0247802176e-03    8.5918001831e-02
    6.0297399759e-03    8.5969008505e-02
    6.0347002000e-03    8.6022004485e-02
    6.0399197973e-03    8.6081005633e-02
    6.0448800214e-03    8.6139008403e-02
    6.0498397797e-03    8.6199000478e-02
    6.0547902249e-03    8.6261004210e-02
    6.0597499833e-03    8.6325004697e-02
    6.0647102073e-03    8.6391009390e-02
    6.0699298047e-03    8.6461007595e-02
    6.0748900287e-03    8.6530007422e-02
    6.0798497871e-03    8.6600005627e-02
    6.0848100111e-03    8.6671002209e-02
    6.0897697695e-03    8.6744010448e-02
    6.0947397724e-03    8.6817003787e-02
    6.0996999964e-03    8.6892008781e-02
    6.1049200594e-03    8.6972005665e-02
    6.1098798178e-03    8.7049007416e-02
    6.1148400418e-03    8.7128005922e-02
    6.1198100448e-03    8.7209001184e-02
    6.1247698031e-03    8.7291009724e-02
    6.1297300272e-03    8.7374009192e-02
    6.1346897855e-03    8.7459005415e-02
    6.1399200931e-03    8.7551005185e-02
    6.1448798515e-03    8.7639003992e-02
    6.1498498544e-03    8.7728999555e-02
    6.1548100784e-03    8.7821006775e-02
    6.1597698368e-03    8.7913006544e-02
    6.1647398397e-03    8.8007010520e-02
    6.1697000638e-03    8.8102005422e-02
    6.1749299057e-03    8.8202007115e-02
    6.1798901297e-03    8.8298000395e-02
    6.1848601326e-03    8.8395006955e-02
    6.1898301356e-03    8.8491007686e-02
    6.1947898939e-03    8.8588006794e-02
    6.1997598968e-03    8.8684000075e-02
    6.2047201209e-03    8.8779009879e-02
    6.2096901238e-03    8.8874004781e-02
    6.2149199657e-03    8.8974006474e-02
    6.2198899686e-03    8.9067004621e-02
    6.2248501927e-03    8.9160010219e-02
    6.2298201956e-03    8.9251011610e-02
    6.2347901985e-03    8.9342005551e-02
    6.2397602014e-03    8.9431002736e-02
    6.2447302043e-03    8.9519001544e-02
    6.2497002073e-03    8.9605003595e-02
    6.2546702102e-03    8.9690007269e-02
    6.2599000521e-03    8.9777007699e-02
    6.2648700550e-03    8.9858002961e-02
    6.2698400579e-03    8.9936003089e-02
    6.2748100609e-03    9.0013004839e-02
    6.2797898427e-03    9.0087011456e-02
    6.2847598456e-03    9.0160004795e-02
    6.2897298485e-03    9.0230002999e-02
    6.2946998514e-03    9.0297006071e-02
    6.2996800989e-03    9.0363003314e-02
    6.3049099408e-03    9.0429008007e-02
    6.3098901883e-03    9.0490005910e-02
    6.3148601912e-03    9.0548008680e-02
    6.3198399730e-03    9.0604007244e-02
    6.3248099759e-03    9.0658001602e-02
    6.3297902234e-03    9.0708002448e-02
    6.3347602263e-03    9.0757004917e-02
    6.3397302292e-03    9.0802006423e-02
    6.3447100110e-03    9.0845011175e-02
    6.3496800140e-03    9.0884007514e-02
    6.3549201004e-03    9.0923011303e-02
    6.3598998822e-03    9.0956009924e-02
    6.3648698851e-03    9.0987004340e-02
    6.3698501326e-03    9.1016001999e-02
    6.3748201355e-03    9.1043002903e-02
    6.3797999173e-03    9.1069005430e-02
    6.3847699203e-03    9.1095007956e-02
    6.3897501677e-03    9.1121003032e-02
    6.3947299495e-03    9.1148011386e-02
    6.3996999525e-03    9.1177001595e-02
    6.4046801999e-03    9.1208003461e-02
    6.4099198207e-03    9.1242007911e-02
    6.4148898236e-03    9.1277003288e-02
    6.4198700711e-03    9.1314010322e-02
    6.4248498529e-03    9.1353006661e-02
    6.4298198558e-03    9.1392010450e-02
    6.4348001033e-03    9.1432005167e-02
    6.4397798851e-03    9.1471999884e-02
    6.4447601326e-03    9.1512009501e-02
    6.4497399144e-03    9.1552004218e-02
    6.4547201619e-03    9.1592006385e-02
    6.4596901648e-03    9.1632008553e-02
    6.4646699466e-03    9.1671004891e-02
    6.4699100330e-03    9.1713003814e-02
    6.4748898149e-03    9.1754004359e-02
    6.4798700623e-03    9.1795004904e-02
    6.4848498441e-03    9.1838002205e-02
    6.4898300916e-03    9.1883011162e-02
    6.4948098734e-03    9.1929003596e-02
    6.4997901209e-03    9.1978006065e-02
    6.5047699027e-03    9.2029005289e-02
    6.5097599290e-03    9.2081010342e-02
    6.5147401765e-03    9.2137008905e-02
    6.5197199583e-03    9.2194013298e-02
    6.5247002058e-03    9.2253006995e-02
    6.5296799876e-03    9.2314004898e-02
    6.5346597694e-03    9.2377014458e-02
    6.5399101004e-03    9.2445008457e-02
    6.5448898822e-03    9.2511005700e-02
    6.5498799086e-03    9.2579007149e-02
    6.5548601560e-03    9.2649005353e-02
    6.5598399378e-03    9.2720009387e-02
    6.5648299642e-03    9.2794008553e-02
    6.5698102117e-03    9.2868998647e-02
    6.5747997724e-03    9.2946000397e-02
    6.5797800198e-03    9.3025006354e-02
    6.5847598016e-03    9.3107007444e-02
    6.5897498280e-03    9.3190006912e-02
    6.5947398543e-03    9.3275010586e-02
    6.5997201018e-03    9.3363001943e-02
    6.6047101282e-03    9.3451999128e-02
    6.6096899100e-03    9.3542009592e-02
    6.6146799363e-03    9.3634009361e-02
    6.6196699627e-03    9.3728005886e-02
    6.6246502101e-03    9.3822009861e-02
    6.6299000755e-03    9.3923002481e-02
    6.6348901019e-03    9.4018004835e-02
    6.6398801282e-03    9.4115003943e-02
    6.6448701546e-03    9.4211004674e-02
    6.6498499364e-03    9.4308011234e-02
    6.6548399627e-03    9.4405010343e-02
    6.6598299891e-03    9.4502009451e-02
    6.6648200154e-03    9.4599008560e-02
    6.6698100418e-03    9.4697006047e-02
    6.6748000681e-03    9.4795003533e-02
    6.6797900945e-03    9.4892002642e-02
    6.6847801208e-03    9.4990000129e-02
    6.6897701472e-03    9.5087014139e-02
    6.6947601736e-03    9.5184005797e-02
    6.6997501999e-03    9.5281004906e-02
    6.7047402263e-03    9.5375999808e-02
    6.7097400315e-03    9.5471009612e-02
    6.7147300579e-03    9.5564007759e-02
    6.7197200842e-03    9.5655009151e-02
    6.7247101106e-03    9.5744006336e-02
    6.7297099158e-03    9.5832012594e-02
    6.7346999422e-03    9.5917001367e-02
    6.7397002131e-03    9.5999009907e-02
    6.7446897738e-03    9.6079006791e-02
    6.7496900447e-03    9.6157006919e-02
    6.7546800710e-03    9.6232011914e-02
    6.7596798763e-03    9.6305005252e-02
    6.7646699026e-03    9.6376009285e-02
    6.7696701735e-03    9.6444003284e-02
    6.7746699788e-03    9.6510007977e-02
    6.7796697840e-03    9.6574008465e-02
    6.7846598104e-03    9.6636004746e-02
    6.7896600813e-03    9.6695013344e-02
    6.7946598865e-03    9.6752010286e-02
    6.7996601574e-03    9.6807010472e-02
    6.8046599627e-03    9.6859000623e-02
    6.8096597679e-03    9.6908003092e-02
    6.8146600388e-03    9.6955008805e-02
    6.8196598440e-03    9.7000002861e-02
    6.8246601149e-03    9.7042001784e-02
    6.8296599202e-03    9.7081013024e-02
    6.8346601911e-03    9.7119003534e-02
    6.8396599963e-03    9.7154006362e-02
    6.8446598016e-03    9.7187012434e-02
    6.8496600725e-03    9.7218006849e-02
    6.8546598777e-03    9.7248010337e-02
    6.8596699275e-03    9.7278013825e-02
    6.8646701984e-03    9.7307004035e-02
    6.8696700037e-03    9.7336001694e-02
    6.8746698089e-03    9.7366005182e-02
    6.8796700798e-03    9.7398012877e-02
    6.8846698850e-03    9.7431011498e-02
    6.8896799348e-03    9.7466006875e-02
    6.8946802057e-03    9.7503013909e-02
    6.8996800110e-03    9.7542010248e-02
    6.9046798162e-03    9.7583003342e-02
    6.9096898660e-03    9.7625002265e-02
    6.9146901369e-03    9.7668007016e-02
    6.9196899422e-03    9.7712010145e-02
    6.9246999919e-03    9.7757004201e-02
    6.9296997972e-03    9.7801007330e-02
    6.9347000681e-03    9.7847007215e-02
    6.9397101179e-03    9.7892008722e-02
    6.9447099231e-03    9.7938008606e-02
    6.9497199729e-03    9.7985006869e-02
    6.9547197782e-03    9.8032005131e-02
    6.9597298279e-03    9.8080001771e-02
    6.9647300988e-03    9.8130002618e-02
    6.9697401486e-03    9.8181009293e-02
    6.9747501984e-03    9.8234005272e-02
    6.9797500037e-03    9.8289012909e-02
    6.9847600535e-03    9.8346009851e-02
    6.9897701032e-03    9.8405003548e-02
    6.9947699085e-03    9.8465010524e-02
    6.9997799583e-03    9.8528012633e-02
    7.0047900081e-03    9.8592005670e-02
    7.0098000579e-03    9.8657004535e-02
    7.0147998631e-03    9.8725013435e-02
    7.0198099129e-03    9.8794005811e-02
    7.0248199627e-03    9.8864011467e-02
    7.0298300125e-03    9.8937004805e-02
    7.0348400623e-03    9.9011011422e-02
    7.0398501121e-03    9.9086008966e-02
    7.0448601618e-03    9.9164009094e-02
    7.0498702116e-03    9.9243007600e-02
    7.0548797958e-03    9.9323004484e-02
    7.0598898456e-03    9.9406011403e-02
    7.0646400563e-03    9.9485002458e-02
    7.0696501061e-03    9.9571004510e-02
    7.0746601559e-03    9.9657006562e-02
    7.0796702057e-03    9.9745005369e-02
    7.0846797898e-03    9.9835000932e-02
    7.0897000842e-03    9.9925011396e-02
    7.0947101340e-03    1.0002000630e-01
    7.0997201838e-03    1.0010999441e-01
    7.1047297679e-03    1.0019999743e-01
    7.1097500622e-03    1.0029000044e-01
    7.1147601120e-03    1.0038000345e-01
    7.1197701618e-03    1.0047999769e-01
    7.1247899905e-03    1.0057000071e-01
    7.1298000403e-03    1.0066000372e-01
    7.1348198690e-03    1.0075999796e-01
    7.1398299187e-03    1.0085000098e-01
    7.1448502131e-03    1.0094000399e-01
    7.1498597972e-03    1.0103000700e-01
    7.1548800915e-03    1.0111999512e-01
    7.1596298367e-03    1.0120999813e-01
    7.1646501310e-03    1.0130000114e-01
    7.1696699597e-03    1.0139000416e-01
    7.1746800095e-03    1.0147999972e-01
    7.1796998382e-03    1.0157000273e-01
    7.1847201325e-03    1.0166000575e-01
    7.1897399612e-03    1.0174000263e-01
    7.1947597899e-03    1.0183000565e-01
    7.1997698396e-03    1.0190999508e-01
    7.2047901340e-03    1.0198999941e-01
    7.2098099627e-03    1.0206999630e-01
    7.2148297913e-03    1.0215000063e-01
    7.2198500857e-03    1.0221999884e-01
    7.2248801589e-03    1.0228999704e-01
    7.2296299040e-03    1.0236000270e-01
    7.2346599773e-03    1.0243000090e-01
    7.2396798059e-03    1.0249000043e-01
    7.2447001003e-03    1.0255999863e-01
    7.2497199290e-03    1.0262000561e-01
    7.2547402233e-03    1.0267000645e-01
    7.2597698309e-03    1.0272999853e-01
    7.2647901252e-03    1.0277999938e-01
    7.2698099539e-03    1.0283000767e-01
    7.2748400271e-03    1.0288000107e-01
    7.2798598558e-03    1.0291999578e-01
    7.2848801501e-03    1.0297000408e-01
    7.2896401398e-03    1.0300000012e-01
    7.2946599685e-03    1.0304000229e-01
    7.2996900417e-03    1.0306999832e-01
    7.3047098704e-03    1.0311000794e-01
    7.3097301647e-03    1.0313999653e-01
    7.3147597723e-03    1.0317000002e-01
    7.3197800666e-03    1.0319000483e-01
    7.3248101398e-03    1.0322000086e-01
    7.3298299685e-03    1.0325000435e-01
    7.3348497972e-03    1.0328000039e-01
    7.3398798704e-03    1.0331000388e-01
    7.3446398601e-03    1.0334000736e-01
    7.3496601544e-03    1.0338000208e-01
    7.3546902277e-03    1.0341000557e-01
    7.3597100563e-03    1.0345000029e-01
    7.3647401296e-03    1.0348999500e-01
    7.3697599582e-03    1.0353000462e-01
    7.3747900315e-03    1.0356999934e-01
    7.3798201047e-03    1.0361000150e-01
    7.3848399334e-03    1.0364999622e-01
    7.3898700066e-03    1.0369000584e-01
    7.3946299963e-03    1.0373000056e-01
    7.3996600695e-03    1.0377001017e-01
    7.4046798982e-03    1.0382000357e-01
    7.4097099714e-03    1.0385999829e-01
    7.4147400446e-03    1.0390000790e-01
    7.4197701178e-03    1.0394000262e-01
    7.4248001911e-03    1.0398999602e-01
    7.4298200198e-03    1.0404000431e-01
    7.4348500930e-03    1.0407999903e-01
    7.4398801662e-03    1.0413000733e-01
    7.4446499348e-03    1.0418000072e-01
    7.4496800080e-03    1.0423000157e-01
    7.4547100812e-03    1.0429000109e-01
    7.4597401544e-03    1.0434000939e-01
    7.4647702277e-03    1.0440000147e-01
    7.4697998352e-03    1.0446000099e-01
    7.4748299085e-03    1.0452000052e-01
    7.4798599817e-03    1.0458000004e-01
    7.4846302159e-03    1.0463999957e-01
    7.4896598235e-03    1.0470999777e-01
    7.4946898967e-03    1.0477000475e-01
    7.4997199699e-03    1.0484000295e-01
    7.5047500432e-03    1.0491000861e-01
    7.5097898953e-03    1.0499000549e-01
    7.5148199685e-03    1.0506000370e-01
    7.5198500417e-03    1.0513999313e-01
    7.5246198103e-03    1.0520999879e-01
    7.5296498835e-03    1.0528999567e-01
    7.5346902013e-03    1.0537999868e-01
    7.5397198088e-03    1.0546000302e-01
    7.5447601266e-03    1.0555000603e-01
    7.5497901998e-03    1.0563999414e-01
    7.5548300520e-03    1.0572999716e-01
    7.5598601252e-03    1.0582000017e-01
    7.5646298937e-03    1.0591000319e-01
    7.5696702115e-03    1.0599999875e-01
    7.5747100636e-03    1.0610000044e-01
    7.5797401369e-03    1.0619000345e-01
    7.5847799890e-03    1.0628999770e-01
    7.5898198411e-03    1.0638000071e-01
    7.5948499143e-03    1.0648000240e-01
    7.5996299274e-03    1.0657000542e-01
    7.6046697795e-03    1.0666999966e-01
    7.6096998528e-03    1.0677000135e-01
    7.6147401705e-03    1.0686000437e-01
    7.6197800227e-03    1.0695999861e-01
    7.6248198748e-03    1.0706000775e-01
    7.6298601925e-03    1.0714999586e-01
    7.6346299611e-03    1.0723999888e-01
    7.6396698132e-03    1.0734000057e-01
    7.6447199099e-03    1.0743000358e-01
    7.6497602277e-03    1.0751999915e-01
    7.6548000798e-03    1.0762000084e-01
    7.6598399319e-03    1.0771000385e-01
    7.6646199450e-03    1.0779000819e-01
    7.6696597971e-03    1.0787999630e-01
    7.6747001149e-03    1.0796000063e-01
    7.6797399670e-03    1.0805000365e-01
    7.6847900636e-03    1.0813000053e-01
    7.6898299158e-03    1.0821000487e-01
    7.6946099289e-03    1.0828000307e-01
    7.6996600255e-03    1.0836000741e-01
    7.7046998776e-03    1.0843000561e-01
    7.7097499743e-03    1.0851000994e-01
    7.7147898264e-03    1.0858000815e-01
    7.7198399231e-03    1.0864000767e-01
    7.7246199362e-03    1.0871000588e-01
    7.7296700329e-03    1.0877000540e-01
    7.7347201295e-03    1.0882999748e-01
    7.7397702262e-03    1.0888999701e-01
    7.7448100783e-03    1.0894000530e-01
    7.7498601750e-03    1.0900000483e-01
    7.7546401881e-03    1.0903999954e-01
    7.7596898191e-03    1.0908999294e-01
    7.7647399157e-03    1.0913000256e-01
    7.7697900124e-03    1.0917999595e-01
    7.7748401091e-03    1.0921000689e-01
    7.7796201222e-03    1.0925000161e-01
    7.7846702188e-03    1.0928000510e-01
    7.7897198498e-03    1.0931999981e-01
    7.7947699465e-03    1.0935000330e-01
    7.7998200431e-03    1.0937999934e-01
    7.8046000563e-03    1.0941000283e-01
    7.8096501529e-03    1.0944000632e-01
    7.8146997839e-03    1.0947000235e-01
    7.8197596595e-03    1.0950000584e-01
    7.8248102218e-03    1.0952999443e-01
    7.8298598528e-03    1.0957000405e-01
    7.8346403316e-03    1.0960000008e-01
    7.8396899626e-03    1.0964000225e-01
    7.8447395936e-03    1.0967999697e-01
    7.8497901559e-03    1.0972000659e-01
    7.8548500314e-03    1.0976999998e-01
    7.8596295789e-03    1.0980999470e-01
    7.8646801412e-03    1.0985000432e-01
    7.8697400168e-03    1.0989999771e-01
    7.8747896478e-03    1.0994000733e-01
    7.8798402101e-03    1.0999000072e-01
    7.8846300021e-03    1.1002999544e-01
    7.8896796331e-03    1.1008000374e-01
    7.8947404400e-03    1.1013000458e-01
    7.8997900710e-03    1.1016999930e-01
    7.9048499465e-03    1.1022000760e-01
    7.9096304253e-03    1.1027000099e-01
    7.9146903008e-03    1.1031999439e-01
    7.9197399318e-03    1.1038000882e-01
    7.9247998074e-03    1.1043000221e-01
    7.9298503697e-03    1.1049000174e-01
    7.9346401617e-03    1.1055000126e-01
    7.9397000372e-03    1.1061000079e-01
    7.9447599128e-03    1.1066999286e-01
    7.9498095438e-03    1.1073000729e-01
    7.9548703507e-03    1.1079000682e-01
    7.9596601427e-03    1.1084999889e-01
    7.9647200182e-03    1.1092000455e-01
    7.9697798938e-03    1.1099000275e-01
    7.9748304561e-03    1.1106000096e-01
    7.9796295613e-03    1.1112000048e-01
    7.9846801236e-03    1.1118999869e-01
    7.9897399992e-03    1.1127000302e-01
    7.9947998747e-03    1.1134000123e-01
    7.9998597503e-03    1.1141999811e-01
    8.0046597868e-03    1.1150000244e-01
    8.0097196624e-03    1.1158000678e-01
    8.0147795379e-03    1.1166000366e-01
    8.0198403448e-03    1.1174000800e-01
    8.0246301368e-03    1.1181999743e-01
    8.0296900123e-03    1.1191000044e-01
    8.0347498879e-03    1.1200000346e-01
    8.0398200080e-03    1.1209000647e-01
    8.0448798835e-03    1.1217999458e-01
    8.0496696755e-03    1.1226999760e-01
    8.0547397956e-03    1.1236000061e-01
    8.0597996712e-03    1.1245000362e-01
    8.0648595467e-03    1.1253999919e-01
    8.0696595833e-03    1.1263000220e-01
    8.0747203901e-03    1.1272000521e-01
    8.0797895789e-03    1.1282000691e-01
    8.0848503858e-03    1.1290999502e-01
    8.0896504223e-03    1.1299999803e-01
    8.0947102979e-03    1.1309000105e-01
    8.0997804180e-03    1.1318000406e-01
    8.1048402935e-03    1.1326999962e-01
    8.1096403301e-03    1.1336000264e-01
    8.1147104502e-03    1.1345000565e-01
    8.1197796389e-03    1.1353000253e-01
    8.1248404458e-03    1.1361999810e-01
    8.1296497956e-03    1.1369999498e-01
    8.1347096711e-03    1.1378999799e-01
    8.1397797912e-03    1.1387000233e-01
    8.1448499113e-03    1.1395000666e-01
    8.1496499479e-03    1.1403000355e-01
    8.1547200680e-03    1.1411000788e-01
    8.1597901881e-03    1.1418000609e-01
    8.1648603082e-03    1.1426001042e-01
    8.1696603447e-03    1.1433000863e-01
    8.1747397780e-03    1.1440000683e-01
    8.1798098981e-03    1.1447000504e-01
    8.1848800182e-03    1.1454000324e-01
    8.1896800548e-03    1.1460000277e-01
    8.1947501749e-03    1.1467000097e-01
    8.1998202950e-03    1.1473000050e-01
    8.2046296448e-03    1.1478000134e-01
    8.2096997648e-03    1.1483999342e-01
    8.2147698849e-03    1.1489000171e-01
    8.2198400050e-03    1.1495000124e-01
    8.2246502861e-03    1.1498999596e-01
    8.2297204062e-03    1.1504000425e-01
    8.2347895950e-03    1.1507999897e-01
    8.2398699597e-03    1.1512000859e-01
    8.2446699962e-03    1.1516000330e-01
    8.2497401163e-03    1.1519999802e-01
    8.2548195496e-03    1.1523000151e-01
    8.2598896697e-03    1.1526000500e-01
    8.2646999508e-03    1.1529000103e-01
    8.2697700709e-03    1.1532000452e-01
    8.2748401910e-03    1.1535000056e-01
    8.2796495408e-03    1.1538000405e-01
    8.2847196609e-03    1.1540999264e-01
    8.2897897810e-03    1.1544000357e-01
    8.2948701456e-03    1.1548000574e-01
    8.2996701822e-03    1.1551000178e-01
    8.3047496155e-03    1.1555000395e-01
    8.3098197356e-03    1.1558999866e-01
    8.3146300167e-03    1.1562000960e-01
    8.3197103813e-03    1.1566000432e-01
    8.3247795701e-03    1.1569999903e-01
    8.3298599347e-03    1.1574000120e-01
    8.3346599713e-03    1.1577999592e-01
    8.3397403359e-03    1.1582000554e-01
    8.3448197693e-03    1.1586000025e-01
    8.3498898894e-03    1.1591000855e-01
    8.3547001705e-03    1.1595000327e-01
    8.3597796038e-03    1.1598999798e-01
    8.3648497239e-03    1.1603000015e-01
    8.3696600050e-03    1.1606999487e-01
    8.3747403696e-03    1.1612000316e-01
    8.3798198029e-03    1.1617000401e-01
    8.3849001676e-03    1.1621999741e-01
    8.3897104487e-03    1.1626000702e-01
    8.3947898820e-03    1.1632000655e-01
    8.3998702466e-03    1.1636999995e-01
    8.4046795964e-03    1.1641999334e-01
    8.4097599611e-03    1.1648000777e-01
    8.4148403257e-03    1.1653000116e-01
    8.4196496755e-03    1.1659000069e-01
    8.4247300401e-03    1.1665000021e-01
    8.4298104048e-03    1.1670999974e-01
    8.4348898381e-03    1.1677000672e-01
    8.4397001192e-03    1.1683000624e-01
    8.4447897971e-03    1.1690000445e-01
    8.4498701617e-03    1.1697000265e-01
    8.4546804428e-03    1.1703000218e-01
    8.4597598761e-03    1.1710000038e-01
    8.4648495540e-03    1.1716999859e-01
    8.4696598351e-03    1.1724000424e-01
    8.4747401997e-03    1.1732000113e-01
    8.4798298776e-03    1.1740000546e-01
    8.4846401587e-03    1.1747000366e-01
    8.4897298366e-03    1.1756000668e-01
    8.4948102012e-03    1.1763999611e-01
    8.4998998791e-03    1.1772999913e-01
    8.5047101602e-03    1.1781000346e-01
    8.5097998381e-03    1.1790000647e-01
    8.5148802027e-03    1.1798000336e-01
    8.5196997970e-03    1.1806999892e-01
    8.5247904062e-03    1.1816000193e-01
    8.5298800841e-03    1.1825000495e-01
    8.5346903652e-03    1.1834000796e-01
    8.5397800431e-03    1.1843999475e-01
    8.5448697209e-03    1.1852999777e-01
    8.5496902466e-03    1.1862000078e-01
    8.5547799245e-03    1.1871999502e-01
    8.5598602891e-03    1.1880999804e-01
    8.5646798834e-03    1.1891000718e-01
    8.5697695613e-03    1.1900001019e-01
    8.5748601705e-03    1.1909999698e-01
    8.5796797648e-03    1.1919000000e-01
    8.5847703740e-03    1.1928999424e-01
    8.5898600519e-03    1.1939000338e-01
    8.5946898907e-03    1.1948000640e-01
    8.5997795686e-03    1.1957000941e-01
    8.6048701778e-03    1.1965999752e-01
    8.6096897721e-03    1.1975000054e-01
    8.6147803813e-03    1.1984000355e-01
    8.6198803037e-03    1.1993000656e-01
    8.6246998981e-03    1.2000999600e-01
    8.6297895759e-03    1.2009000033e-01
    8.6348904297e-03    1.2016999722e-01
    8.6397100240e-03    1.2025000155e-01
    8.6448099464e-03    1.2032999843e-01
    8.6498996243e-03    1.2041000277e-01
    8.6547303945e-03    1.2048000097e-01
    8.6598200724e-03    1.2054999918e-01
    8.6646499112e-03    1.2062000483e-01
    8.6697498336e-03    1.2069000304e-01
    8.6748497561e-03    1.2076000124e-01
    8.6796702817e-03    1.2082000077e-01
    8.6847702041e-03    1.2088000029e-01
    8.6898701265e-03    1.2094000727e-01
    8.6946999654e-03    1.2100000679e-01
    8.6997998878e-03    1.2106000632e-01
    8.7048998103e-03    1.2110999972e-01
    8.7097203359e-03    1.2115999311e-01
    8.7148202583e-03    1.2121000141e-01
    8.7196500972e-03    1.2124999613e-01
    8.7247500196e-03    1.2130000442e-01
    8.7298499420e-03    1.2133999914e-01
    8.7346797809e-03    1.2137001008e-01
    8.7397797033e-03    1.2141000479e-01
    8.7448796257e-03    1.2144999951e-01
    8.7497103959e-03    1.2148000300e-01
    8.7548103184e-03    1.2151000649e-01
    8.7599102408e-03    1.2154000252e-01
    8.7647400796e-03    1.2157000601e-01
    8.7698400021e-03    1.2159999460e-01
    8.7746698409e-03    1.2163000554e-01
    8.7797697634e-03    1.2167000026e-01
    8.7848696858e-03    1.2170000374e-01
    8.7897004560e-03    1.2173999846e-01
    8.7948003784e-03    1.2178000063e-01
    8.7999003008e-03    1.2181999534e-01
    8.8047403842e-03    1.2186000496e-01
    8.8098403066e-03    1.2189999968e-01
    8.8146701455e-03    1.2194000930e-01
    8.8197700679e-03    1.2199000269e-01
    8.8248699903e-03    1.2202999741e-01
    8.8297100738e-03    1.2207000703e-01
    8.8348099962e-03    1.2212000042e-01
    8.8399099186e-03    1.2216001004e-01
    8.8447500020e-03    1.2221000344e-01
    8.8498499244e-03    1.2224999815e-01
    8.8546900079e-03    1.2230000645e-01
    8.8597899303e-03    1.2234999985e-01
    8.8648898527e-03    1.2240000069e-01
    8.8697299361e-03    1.2244999409e-01
    8.8748298585e-03    1.2250000238e-01
    8.8796699420e-03    1.2256000191e-01
    8.8847801089e-03    1.2260999531e-01
    8.8898800313e-03    1.2266999483e-01
    8.8947201148e-03    1.2273000926e-01
    8.8998200372e-03    1.2279000133e-01
    8.9046601206e-03    1.2285000086e-01
    8.9097702876e-03    1.2291000038e-01
    8.9148804545e-03    1.2297999859e-01
    8.9197102934e-03    1.2303999811e-01
    8.9248204604e-03    1.2310999632e-01
    8.9296596125e-03    1.2316999584e-01
    8.9347697794e-03    1.2323999405e-01
    8.9398799464e-03    1.2331000715e-01
    8.9447200298e-03    1.2338000536e-01
    8.9498301968e-03    1.2345000356e-01
    8.9546702802e-03    1.2352000922e-01
    8.9597804472e-03    1.2359000742e-01
    8.9648896828e-03    1.2367000431e-01
    8.9697297662e-03    1.2374000996e-01
    8.9748399332e-03    1.2381999940e-01
    8.9796800166e-03    1.2389999628e-01
    8.9847901836e-03    1.2398000062e-01
    8.9899003506e-03    1.2405999750e-01
    8.9947497472e-03    1.2415000051e-01
    8.9998599142e-03    1.2423000485e-01
    9.0046999976e-03    1.2431999296e-01
    9.0098101646e-03    1.2440999597e-01
    9.0149296448e-03    1.2449999899e-01
    9.0197697282e-03    1.2458000332e-01
    9.0248798952e-03    1.2467000633e-01
    9.0297302231e-03    1.2475999445e-01
    9.0348403901e-03    1.2484999746e-01
    9.0396897867e-03    1.2494000047e-01
    9.0447999537e-03    1.2503001094e-01
    9.0499203652e-03    1.2511999905e-01
    9.0547604486e-03    1.2521000206e-01
    9.0598799288e-03    1.2530000508e-01
    9.0647302568e-03    1.2539000809e-01
    9.0698404238e-03    1.2547999620e-01
    9.0746898204e-03    1.2556000054e-01
    9.0798102319e-03    1.2565000355e-01
    9.0849297121e-03    1.2574000657e-01
    9.0897697955e-03    1.2582001090e-01
    9.0948902071e-03    1.2590000033e-01
    9.0997396037e-03    1.2598000467e-01
    9.1048600152e-03    1.2607000768e-01
    9.1097103432e-03    1.2613999844e-01
    9.1148298234e-03    1.2622000277e-01
    9.1196801513e-03    1.2629000843e-01
    9.1247996315e-03    1.2636999786e-01
    9.1299200431e-03    1.2644000351e-01
    9.1347796842e-03    1.2651000917e-01
    9.1399000958e-03    1.2657999992e-01
    9.1447504237e-03    1.2664000690e-01
    9.1498699039e-03    1.2670999765e-01
    9.1547202319e-03    1.2677000463e-01
    9.1598397121e-03    1.2683001161e-01
    9.1646900401e-03    1.2689000368e-01
    9.1698197648e-03    1.2693999708e-01
    9.1749401763e-03    1.2700000405e-01
    9.1797895730e-03    1.2704999745e-01
    9.1849099845e-03    1.2710000575e-01
    9.1897603124e-03    1.2714000046e-01
    9.1948900372e-03    1.2719000876e-01
    9.1997403651e-03    1.2723000348e-01
    9.2048598453e-03    1.2726999819e-01
    9.2097101733e-03    1.2730000913e-01
    9.2148398980e-03    1.2734000385e-01
    9.2196902260e-03    1.2736999989e-01
    9.2248097062e-03    1.2740999460e-01
    9.2299403623e-03    1.2744000554e-01
    9.2347897589e-03    1.2747000158e-01
    9.2399101704e-03    1.2750999629e-01
    9.2447698116e-03    1.2754000723e-01
    9.2498902231e-03    1.2757000327e-01
    9.2547396198e-03    1.2761001289e-01
    9.2598702759e-03    1.2763999403e-01
    9.2647196725e-03    1.2768000364e-01
    9.2698503286e-03    1.2771999836e-01
    9.2746997252e-03    1.2776000798e-01
    9.2798303813e-03    1.2780000269e-01
    9.2846797779e-03    1.2783999741e-01
    9.2898104340e-03    1.2788000703e-01
    9.2949299142e-03    1.2792000175e-01
    9.2997895554e-03    1.2796001136e-01
    9.3049099669e-03    1.2800000608e-01
    9.3097696081e-03    1.2803000212e-01
    9.3149002641e-03    1.2807999551e-01
    9.3197496608e-03    1.2812000513e-01
    9.3248803169e-03    1.2815999985e-01
    9.3297399580e-03    1.2819999456e-01
    9.3348696828e-03    1.2824000418e-01
    9.3397200108e-03    1.2828999758e-01
    9.3448497355e-03    1.2834000587e-01
    9.3497103080e-03    1.2838000059e-01
    9.3548400328e-03    1.2842999399e-01
    9.3596996740e-03    1.2848000228e-01
    9.3648303300e-03    1.2854000926e-01
    9.3696899712e-03    1.2859000266e-01
    9.3748196959e-03    1.2864999473e-01
    9.3799503520e-03    1.2870000303e-01
    9.3848099932e-03    1.2876001000e-01
    9.3899397179e-03    1.2882000208e-01
    9.3948002905e-03    1.2888000906e-01
    9.3999300152e-03    1.2894000113e-01
    9.4047896564e-03    1.2899999321e-01
    9.4099203125e-03    1.2906999886e-01
    9.4147799537e-03    1.2913000584e-01
    9.4199199229e-03    1.2920001149e-01
    9.4247795641e-03    1.2927000225e-01
    9.4299102202e-03    1.2934000790e-01
    9.4347801059e-03    1.2941001356e-01
    9.4399098307e-03    1.2949000299e-01
    9.4447704032e-03    1.2956000865e-01
    9.4499103725e-03    1.2963999808e-01
    9.4547700137e-03    1.2972000241e-01
    9.4599099830e-03    1.2980000675e-01
    9.4647696242e-03    1.2987999618e-01
    9.4699095935e-03    1.2996999919e-01
    9.4747701660e-03    1.3005000353e-01
    9.4799101353e-03    1.3013000786e-01
    9.4847800210e-03    1.3020999730e-01
    9.4899097458e-03    1.3030000031e-01
    9.4947796315e-03    1.3039000332e-01
    9.4999196008e-03    1.3048000634e-01
    9.5047801733e-03    1.3056001067e-01
    9.5099201426e-03    1.3065999746e-01
    9.5147900283e-03    1.3074000180e-01
    9.5199299976e-03    1.3084000349e-01
    9.5247998834e-03    1.3092999160e-01
    9.5299398527e-03    1.3101999462e-01
    9.5348097384e-03    1.3112001121e-01
    9.5399497077e-03    1.3121001422e-01
    9.5448102802e-03    1.3130000234e-01
    9.5499502495e-03    1.3140000403e-01
    9.5548303798e-03    1.3149000704e-01
    9.5597002655e-03    1.3157999516e-01
    9.5648402348e-03    1.3166999817e-01
    9.5697101206e-03    1.3176000118e-01
    9.5748500898e-03    1.3185000420e-01
    9.5797199756e-03    1.3193999231e-01
    9.5848701894e-03    1.3202999532e-01
    9.5897400752e-03    1.3210999966e-01
    9.5948800445e-03    1.3219000399e-01
    9.5997601748e-03    1.3227000833e-01
    9.6049001440e-03    1.3236001134e-01
    9.6097802743e-03    1.3243000209e-01
    9.6149202436e-03    1.3250999153e-01
    9.6198003739e-03    1.3257999718e-01
    9.6249403432e-03    1.3266000152e-01
    9.6298195422e-03    1.3272999227e-01
    9.6346996725e-03    1.3279999793e-01
    9.6398396417e-03    1.3287000358e-01
    9.6447197720e-03    1.3293001056e-01
    9.6498699859e-03    1.3300000131e-01
    9.6547501162e-03    1.3306000829e-01
    9.6598900855e-03    1.3312000036e-01
    9.6647702157e-03    1.3316999376e-01
    9.6699204296e-03    1.3323000073e-01
    9.6747996286e-03    1.3328000903e-01
    9.6799498424e-03    1.3333000243e-01
    9.6848197281e-03    1.3336999714e-01
    9.6896998584e-03    1.3341000676e-01
    9.6948500723e-03    1.3345000148e-01
    9.6997302026e-03    1.3349001110e-01
    9.7048804164e-03    1.3353000581e-01
    9.7097503021e-03    1.3357000053e-01
    9.7148995847e-03    1.3359999657e-01
    9.7197797149e-03    1.3363000751e-01
    9.7249299288e-03    1.3367000222e-01
    9.7298100591e-03    1.3369999826e-01
    9.7349602729e-03    1.3372999430e-01
    9.7398404032e-03    1.3377000391e-01
    9.7447196022e-03    1.3380001485e-01
    9.7498698160e-03    1.3384000957e-01
    9.7547499463e-03    1.3388000429e-01
    9.7599001601e-03    1.3391999900e-01
    9.7647802904e-03    1.3395999372e-01
    9.7699295729e-03    1.3400000334e-01
    9.7748097032e-03    1.3403999805e-01
    9.7799701616e-03    1.3408000767e-01
    9.7848502919e-03    1.3412000239e-01
    9.7897304222e-03    1.3415999711e-01
    9.7948797047e-03    1.3421000540e-01
    9.7997598350e-03    1.3425000012e-01
    9.8049100488e-03    1.3429000974e-01
    9.8098004237e-03    1.3433000445e-01
    9.8149497062e-03    1.3437999785e-01
    9.8198298365e-03    1.3442000747e-01
    9.8247202113e-03    1.3447000086e-01
    9.8298704252e-03    1.3451999426e-01
    9.8347496241e-03    1.3456000388e-01
    9.8399100825e-03    1.3460999727e-01
    9.8447902128e-03    1.3466000557e-01
    9.8499497399e-03    1.3472001255e-01
    9.8548298702e-03    1.3477000594e-01
    9.8597202450e-03    1.3482999802e-01
    9.8648797721e-03    1.3489000499e-01
    9.8697599024e-03    1.3494001329e-01
    9.8749203607e-03    1.3501000404e-01
    9.8797995597e-03    1.3507001102e-01
    9.8849600181e-03    1.3513000309e-01
    9.8898503929e-03    1.3518999517e-01
    9.8947398365e-03    1.3525000215e-01
    9.8998900503e-03    1.3531999290e-01
    9.9047804251e-03    1.3538999856e-01
    9.9099399522e-03    1.3546000421e-01
    9.9148303270e-03    1.3552999496e-01
    9.9197197706e-03    1.3560000062e-01
    9.9248802289e-03    1.3566999137e-01
    9.9297696725e-03    1.3573999703e-01
    9.9349301308e-03    1.3582000136e-01
    9.9398195744e-03    1.3588999212e-01
    9.9449800327e-03    1.3596999645e-01
    9.9498704076e-03    1.3605000079e-01
    9.9547598511e-03    1.3612000644e-01
    9.9599203095e-03    1.3619999588e-01
    9.9648097530e-03    1.3628000021e-01
    9.9699804559e-03    1.3637000322e-01
    9.9748698995e-03    1.3645000756e-01
    9.9797602743e-03    1.3653001189e-01
    9.9849198014e-03    1.3662000000e-01
    9.9898204207e-03    1.3670000434e-01
    9.9949799478e-03    1.3679000735e-01
    9.9998703226e-03    1.3688001037e-01
endcurve
