$# LS-DYNA Keyword file created by LS-PrePost(R) V4.6.7 - 09May2019
$# Created on Nov-15-2019 (10:49:51)
*KEYWORD
*TITLE
$#                                                                         title
LS-DYNA keyword deck by LS-PrePost
*CONTROL_TERMINATION
$#  endtim    endcyc     dtmin    endeng    endmas     nosol     
      0.01         0       0.0       0.01.000000E8         0
*DATABASE_ELOUT
$#      dt    binary      lcur     ioopt   option1   option2   option3   option4
5.00000E-6         0         0         1         0         0         0         0
*DATABASE_BINARY_D3PLOT
$#      dt      lcdt      beam     npltc    psetid      
5.00000E-4         0         0         0         0
$#   ioopt     
         0
*DATABASE_HISTORY_SHELL
$#     id1       id2       id3       id4       id5       id6       id7       id8
       314         0         0         0         0         0         0         0
*BOUNDARY_PRESCRIBED_MOTION_SET
$#    nsid       dof       vad      lcid        sf       vid     death     birth
         3         1         2         1      20.0         01.00000E28       0.0
*BOUNDARY_SPC_SET
$#    nsid       cid      dofx      dofy      dofz     dofrx     dofry     dofrz
         1         0         1         0         1         1         1         1
*SET_NODE_LIST_TITLE
NODESET(SPC) 1
$#     sid       da1       da2       da3       da4    solver      
         1       0.0       0.0       0.0       0.0MECH
$#    nid1      nid2      nid3      nid4      nid5      nid6      nid7      nid8
         3         4        77        78        79        80        81        82
        83         0         0         0         0         0         0         0
*BOUNDARY_SPC_SET
$#    nsid       cid      dofx      dofy      dofz     dofrx     dofry     dofrz
         2         0         0         1         0         0         0         0
*SET_NODE_LIST_TITLE
NODESET(SPC) 2
$#     sid       da1       da2       da3       da4    solver      
         2       0.0       0.0       0.0       0.0MECH
$#    nid1      nid2      nid3      nid4      nid5      nid6      nid7      nid8
        80        87         0         0         0         0         0         0
*PART
$#                                                                         title
Tensile Specimen
$#     pid     secid       mid     eosid      hgid      grav    adpopt      tmid
         1         1         1         0         0         0         0         0
*SECTION_SHELL_TITLE
Specimen_shell
$#   secid    elform      shrf       nip     propt   qr/irid     icomp     setyp
         1         2       1.0         2       1.0         0         0         1
$#      t1        t2        t3        t4      nloc     marea      idof    edgset
       1.5       1.5       1.5       1.5       0.0       0.0       0.0         0
*MAT_PIECEWISE_LINEAR_PLASTICITY_TITLE
Steel
$#     mid        ro         e        pr      sigy      etan      fail      tdel
         17.85000E-9  210000.0       0.3     250.0    1000.01.00000E21       0.0
$#       c         p      lcss      lcsr        vp  
       0.0       0.0         0         0       0.0
$#    eps1      eps2      eps3      eps4      eps5      eps6      eps7      eps8
       0.0       0.0       0.0       0.0       0.0       0.0       0.0       0.0
$#     es1       es2       es3       es4       es5       es6       es7       es8
       0.0       0.0       0.0       0.0       0.0       0.0       0.0       0.0
*DEFINE_CURVE_TITLE
Motion
$#    lcid      sidr       sfa       sfo      offa      offo    dattyp     lcint
         1         0       0.0       0.0       0.0       0.0         0         0
$#                a1                  o1  
                 0.0                 0.0
    2.0408163255e-04           0.0204082
    4.0816326509e-04           0.0408163
    6.1224488309e-04           0.0612245
    8.1632653018e-04           0.0816327
           0.0010204           0.1020408
           0.0012245            0.122449
           0.0014286           0.1428571
           0.0016327           0.1632653
           0.0018367           0.1836735
           0.0020408           0.2040816
           0.0022449           0.2244898
            0.002449            0.244898
           0.0026531           0.2653061
           0.0028571           0.2857143
           0.0030612           0.3061225
           0.0032653           0.3265306
           0.0034694           0.3469388
           0.0036735           0.3673469
           0.0038776           0.3877551
$ ... 79 like lines cut
*SET_NODE_LIST_TITLE
Node set 3
$#     sid       da1       da2       da3       da4    solver      
         3       0.0       0.0       0.0       0.0MECH
$#    nid1      nid2      nid3      nid4      nid5      nid6      nid7      nid8
        20        85        19        84        86        87        88        89
        90         0         0         0         0         0         0         0
*ELEMENT_SHELL
$#   eid     pid      n1      n2      n3      n4      n5      n6      n7      n8
       1       1       7      77       4     691       0       0       0       0
       2       1       8       7     691     692       0       0       0       0
       3       1       9      78      77       7       0       0       0       0
       4       1      10       8     692     693       0       0       0       0
       5       1      11       9       7       8       0       0       0       0
       6       1      12      79      78       9       0       0       0       0
       7       1      13      10     693     703       0       0       0       0
       8       1      14      11       8      10       0       0       0       0
       9       1      21      12       9      11       0       0       0       0
      10       1      22      80      79      12       0       0       0       0
      11       1      23      13     703     704       0       0       0       0
      12       1      24      14      10      13       0       0       0       0
      13       1      25      21      11      14       0       0       0       0
      14       1      26      22      12      21       0       0       0       0
      15       1      27      23     704     705       0       0       0       0
      16       1      28      81      80      22       0       0       0       0
      17       1      29      24      13      23       0       0       0       0
      18       1      30      25      14      24       0       0       0       0
      19       1      31      26      21      25       0       0       0       0
      20       1      32      27     705       1       0       0       0       0
$ ... 612 like lines cut
*NODE
$#   nid               x               y               z      tc      rc  
       1        15.20417    5.080240e-09             0.0       0       0
       2        15.20417            22.0             0.0       0       0
       3   -5.395232e-08            22.0             0.0       0       0
       4    5.395232e-08   -6.949253e-08             0.0       0       0
       5            20.0             1.0             0.0       0       0
       6            20.0            21.0             0.0       0       0
       7        2.172024            2.75             0.0       0       0
       8        4.344049            2.75             0.0       0       0
       9        2.172024             5.5             0.0       0       0
      10        6.516075            2.75             0.0       0       0
      11        4.344049             5.5             0.0       0       0
      12        2.172024            8.25             0.0       0       0
      13        8.688099            2.75             0.0       0       0
      14        6.516075             5.5             0.0       0       0
      15           125.0             1.0             0.0       0       0
      16           125.0            21.0             0.0       0       0
      17        129.7958    1.439540e-05             0.0       0       0
      18        129.7958            22.0             0.0       0       0
      19           145.0   -7.888144e-07             0.0       0       0
      20           145.0            22.0             0.0       0       0
$ ... 700 like lines cut
*END
