 LS-DYNA keyword deck by LS-PrePost                                      
                         ls-dyna smp.123264 d           date 01/12/2018

 n o d a l   f o r c e/e n e r g y    o u t p u t  t=   0.00000E+00

 pressure boundary condition forces 

 nd#       1  xforce=   0.0000E+00   yforce=   0.0000E+00  zforce=   0.0000E+00   energy=   0.0000E+00
 nd#      11  xforce=   0.0000E+00   yforce=   0.0000E+00  zforce=   0.0000E+00   energy=   0.0000E+00
 nd#      23  xforce=   0.0000E+00   yforce=   0.0000E+00  zforce=   0.0000E+00   energy=   0.0000E+00
              xtotal=   0.0000E+00   ytotal=   0.0000E+00  ztotal=   0.0000E+00   etotal=   0.0000E+00

 n o d a l   f o r c e/e n e r g y    o u t p u t  t=   5.00000E-04

 pressure boundary condition forces 

 nd#       1  xforce=   0.3931E+01   yforce=   0.2500E+01  zforce=   0.0000E+00   energy=   0.0000E+00
 nd#      11  xforce=   0.2501E+01   yforce=   0.2501E+01  zforce=   0.0000E+00   energy=   0.0000E+00
 nd#      23  xforce=   0.2500E+01   yforce=   0.3931E+01  zforce=   0.0000E+00   energy=   0.0000E+00
              xtotal=   0.8931E+01   ytotal=   0.8931E+01  ztotal=   0.0000E+00   etotal=   0.0000E+00

 n o d a l   f o r c e/e n e r g y    o u t p u t  t=   1.00000E-03

 pressure boundary condition forces 

 nd#       1  xforce=   0.7856E+01   yforce=   0.5000E+01  zforce=   0.0000E+00   energy=   0.0000E+00
 nd#      11  xforce=   0.5002E+01   yforce=   0.5002E+01  zforce=   0.0000E+00   energy=   0.0000E+00
 nd#      23  xforce=   0.5000E+01   yforce=   0.7856E+01  zforce=   0.0000E+00   energy=   0.0000E+00
              xtotal=   0.1786E+02   ytotal=   0.1786E+02  ztotal=   0.0000E+00   etotal=   0.0000E+00

 n o d a l   f o r c e/e n e r g y    o u t p u t  t=   1.50000E-03

 pressure boundary condition forces 

 nd#       1  xforce=   0.1178E+02   yforce=   0.7500E+01  zforce=   0.0000E+00   energy=   0.0000E+00
 nd#      11  xforce=   0.7504E+01   yforce=   0.7504E+01  zforce=   0.0000E+00   energy=   0.0000E+00
 nd#      23  xforce=   0.7500E+01   yforce=   0.1178E+02  zforce=   0.0000E+00   energy=   0.0000E+00
              xtotal=   0.2678E+02   ytotal=   0.2678E+02  ztotal=   0.0000E+00   etotal=   0.0000E+00

 n o d a l   f o r c e/e n e r g y    o u t p u t  t=   2.00000E-03

 pressure boundary condition forces 

 nd#       1  xforce=   0.1569E+02   yforce=   0.1000E+02  zforce=   0.0000E+00   energy=   0.0000E+00
 nd#      11  xforce=   0.1001E+02   yforce=   0.1001E+02  zforce=   0.0000E+00   energy=   0.0000E+00
 nd#      23  xforce=   0.1000E+02   yforce=   0.1569E+02  zforce=   0.0000E+00   energy=   0.0000E+00
              xtotal=   0.3570E+02   ytotal=   0.3570E+02  ztotal=   0.0000E+00   etotal=   0.0000E+00

 n o d a l   f o r c e/e n e r g y    o u t p u t  t=   2.50000E-03

 pressure boundary condition forces 

 nd#       1  xforce=   0.1960E+02   yforce=   0.1250E+02  zforce=   0.0000E+00   energy=   0.0000E+00
 nd#      11  xforce=   0.1251E+02   yforce=   0.1251E+02  zforce=   0.0000E+00   energy=   0.0000E+00
 nd#      23  xforce=   0.1250E+02   yforce=   0.1960E+02  zforce=   0.0000E+00   energy=   0.0000E+00
              xtotal=   0.4462E+02   ytotal=   0.4462E+02  ztotal=   0.0000E+00   etotal=   0.0000E+00

 n o d a l   f o r c e/e n e r g y    o u t p u t  t=   3.00000E-03

 pressure boundary condition forces 

 nd#       1  xforce=   0.2351E+02   yforce=   0.1500E+02  zforce=   0.0000E+00   energy=   0.0000E+00
 nd#      11  xforce=   0.1502E+02   yforce=   0.1502E+02  zforce=   0.0000E+00   energy=   0.0000E+00
 nd#      23  xforce=   0.1500E+02   yforce=   0.2351E+02  zforce=   0.0000E+00   energy=   0.0000E+00
              xtotal=   0.5353E+02   ytotal=   0.5353E+02  ztotal=   0.0000E+00   etotal=   0.0000E+00

 n o d a l   f o r c e/e n e r g y    o u t p u t  t=   3.50000E-03

 pressure boundary condition forces 

 nd#       1  xforce=   0.2741E+02   yforce=   0.1750E+02  zforce=   0.0000E+00   energy=   0.0000E+00
 nd#      11  xforce=   0.1752E+02   yforce=   0.1752E+02  zforce=   0.0000E+00   energy=   0.0000E+00
 nd#      23  xforce=   0.1750E+02   yforce=   0.2741E+02  zforce=   0.0000E+00   energy=   0.0000E+00
              xtotal=   0.6244E+02   ytotal=   0.6244E+02  ztotal=   0.0000E+00   etotal=   0.0000E+00

 n o d a l   f o r c e/e n e r g y    o u t p u t  t=   4.00000E-03

 pressure boundary condition forces 

 nd#       1  xforce=   0.3131E+02   yforce=   0.2000E+02  zforce=   0.0000E+00   energy=   0.0000E+00
 nd#      11  xforce=   0.2003E+02   yforce=   0.2003E+02  zforce=   0.0000E+00   energy=   0.0000E+00
 nd#      23  xforce=   0.2000E+02   yforce=   0.3131E+02  zforce=   0.0000E+00   energy=   0.0000E+00
              xtotal=   0.7134E+02   ytotal=   0.7134E+02  ztotal=   0.0000E+00   etotal=   0.0000E+00

 n o d a l   f o r c e/e n e r g y    o u t p u t  t=   4.50000E-03

 pressure boundary condition forces 

 nd#       1  xforce=   0.3520E+02   yforce=   0.2250E+02  zforce=   0.0000E+00   energy=   0.0000E+00
 nd#      11  xforce=   0.2254E+02   yforce=   0.2254E+02  zforce=   0.0000E+00   energy=   0.0000E+00
 nd#      23  xforce=   0.2250E+02   yforce=   0.3520E+02  zforce=   0.0000E+00   energy=   0.0000E+00
              xtotal=   0.8024E+02   ytotal=   0.8024E+02  ztotal=   0.0000E+00   etotal=   0.0000E+00

 n o d a l   f o r c e/e n e r g y    o u t p u t  t=   5.00000E-03

 pressure boundary condition forces 

 nd#       1  xforce=   0.3908E+02   yforce=   0.2500E+02  zforce=   0.0000E+00   energy=   0.0000E+00
 nd#      11  xforce=   0.2505E+02   yforce=   0.2505E+02  zforce=   0.0000E+00   energy=   0.0000E+00
 nd#      23  xforce=   0.2500E+02   yforce=   0.3908E+02  zforce=   0.0000E+00   energy=   0.0000E+00
              xtotal=   0.8914E+02   ytotal=   0.8914E+02  ztotal=   0.0000E+00   etotal=   0.0000E+00

 n o d a l   f o r c e/e n e r g y    o u t p u t  t=   5.50000E-03

 pressure boundary condition forces 

 nd#       1  xforce=   0.4297E+02   yforce=   0.2750E+02  zforce=   0.0000E+00   energy=   0.0000E+00
 nd#      11  xforce=   0.2756E+02   yforce=   0.2756E+02  zforce=   0.0000E+00   energy=   0.0000E+00
 nd#      23  xforce=   0.2750E+02   yforce=   0.4297E+02  zforce=   0.0000E+00   energy=   0.0000E+00
              xtotal=   0.9803E+02   ytotal=   0.9803E+02  ztotal=   0.0000E+00   etotal=   0.0000E+00

 n o d a l   f o r c e/e n e r g y    o u t p u t  t=   6.00000E-03

 pressure boundary condition forces 

 nd#       1  xforce=   0.4684E+02   yforce=   0.3000E+02  zforce=   0.0000E+00   energy=   0.0000E+00
 nd#      11  xforce=   0.3007E+02   yforce=   0.3007E+02  zforce=   0.0000E+00   energy=   0.0000E+00
 nd#      23  xforce=   0.3000E+02   yforce=   0.4684E+02  zforce=   0.0000E+00   energy=   0.0000E+00
              xtotal=   0.1069E+03   ytotal=   0.1069E+03  ztotal=   0.0000E+00   etotal=   0.0000E+00

 n o d a l   f o r c e/e n e r g y    o u t p u t  t=   6.50000E-03

 pressure boundary condition forces 

 nd#       1  xforce=   0.5071E+02   yforce=   0.3250E+02  zforce=   0.0000E+00   energy=   0.0000E+00
 nd#      11  xforce=   0.3258E+02   yforce=   0.3258E+02  zforce=   0.0000E+00   energy=   0.0000E+00
 nd#      23  xforce=   0.3250E+02   yforce=   0.5071E+02  zforce=   0.0000E+00   energy=   0.0000E+00
              xtotal=   0.1158E+03   ytotal=   0.1158E+03  ztotal=   0.0000E+00   etotal=   0.0000E+00

 n o d a l   f o r c e/e n e r g y    o u t p u t  t=   7.00000E-03

 pressure boundary condition forces 

 nd#       1  xforce=   0.5458E+02   yforce=   0.3500E+02  zforce=   0.0000E+00   energy=   0.0000E+00
 nd#      11  xforce=   0.3510E+02   yforce=   0.3510E+02  zforce=   0.0000E+00   energy=   0.0000E+00
 nd#      23  xforce=   0.3500E+02   yforce=   0.5458E+02  zforce=   0.0000E+00   energy=   0.0000E+00
              xtotal=   0.1247E+03   ytotal=   0.1247E+03  ztotal=   0.0000E+00   etotal=   0.0000E+00

 n o d a l   f o r c e/e n e r g y    o u t p u t  t=   7.50000E-03

 pressure boundary condition forces 

 nd#       1  xforce=   0.5844E+02   yforce=   0.3750E+02  zforce=   0.0000E+00   energy=   0.0000E+00
 nd#      11  xforce=   0.3761E+02   yforce=   0.3761E+02  zforce=   0.0000E+00   energy=   0.0000E+00
 nd#      23  xforce=   0.3750E+02   yforce=   0.5844E+02  zforce=   0.0000E+00   energy=   0.0000E+00
              xtotal=   0.1336E+03   ytotal=   0.1336E+03  ztotal=   0.0000E+00   etotal=   0.0000E+00

 n o d a l   f o r c e/e n e r g y    o u t p u t  t=   8.00000E-03

 pressure boundary condition forces 

 nd#       1  xforce=   0.6230E+02   yforce=   0.4000E+02  zforce=   0.0000E+00   energy=   0.0000E+00
 nd#      11  xforce=   0.4013E+02   yforce=   0.4013E+02  zforce=   0.0000E+00   energy=   0.0000E+00
 nd#      23  xforce=   0.4000E+02   yforce=   0.6230E+02  zforce=   0.0000E+00   energy=   0.0000E+00
              xtotal=   0.1424E+03   ytotal=   0.1424E+03  ztotal=   0.0000E+00   etotal=   0.0000E+00

 n o d a l   f o r c e/e n e r g y    o u t p u t  t=   8.50000E-03

 pressure boundary condition forces 

 nd#       1  xforce=   0.6615E+02   yforce=   0.4251E+02  zforce=   0.0000E+00   energy=   0.0000E+00
 nd#      11  xforce=   0.4264E+02   yforce=   0.4264E+02  zforce=   0.0000E+00   energy=   0.0000E+00
 nd#      23  xforce=   0.4251E+02   yforce=   0.6615E+02  zforce=   0.0000E+00   energy=   0.0000E+00
              xtotal=   0.1513E+03   ytotal=   0.1513E+03  ztotal=   0.0000E+00   etotal=   0.0000E+00

 n o d a l   f o r c e/e n e r g y    o u t p u t  t=   9.00000E-03

 pressure boundary condition forces 

 nd#       1  xforce=   0.7000E+02   yforce=   0.4501E+02  zforce=   0.0000E+00   energy=   0.0000E+00
 nd#      11  xforce=   0.4516E+02   yforce=   0.4516E+02  zforce=   0.0000E+00   energy=   0.0000E+00
 nd#      23  xforce=   0.4501E+02   yforce=   0.7000E+02  zforce=   0.0000E+00   energy=   0.0000E+00
              xtotal=   0.1602E+03   ytotal=   0.1602E+03  ztotal=   0.0000E+00   etotal=   0.0000E+00

 n o d a l   f o r c e/e n e r g y    o u t p u t  t=   9.50000E-03

 pressure boundary condition forces 

 nd#       1  xforce=   0.7354E+02   yforce=   0.4750E+02  zforce=   0.0000E+00   energy=   0.0000E+00
 nd#      11  xforce=   0.4768E+02   yforce=   0.4768E+02  zforce=   0.0000E+00   energy=   0.0000E+00
 nd#      23  xforce=   0.4750E+02   yforce=   0.7354E+02  zforce=   0.0000E+00   energy=   0.0000E+00
              xtotal=   0.1687E+03   ytotal=   0.1687E+03  ztotal=   0.0000E+00   etotal=   0.0000E+00

 n o d a l   f o r c e/e n e r g y    o u t p u t  t=   1.00000E-02

 pressure boundary condition forces 

 nd#       1  xforce=   0.7681E+02   yforce=   0.5000E+02  zforce=   0.0000E+00   energy=   0.0000E+00
 nd#      11  xforce=   0.5020E+02   yforce=   0.5020E+02  zforce=   0.0000E+00   energy=   0.0000E+00
 nd#      23  xforce=   0.5000E+02   yforce=   0.7681E+02  zforce=   0.0000E+00   energy=   0.0000E+00
              xtotal=   0.1770E+03   ytotal=   0.1770E+03  ztotal=   0.0000E+00   etotal=   0.0000E+00

 n o d a l   f o r c e/e n e r g y    o u t p u t  t=   1.05000E-02

 pressure boundary condition forces 

 nd#       1  xforce=   0.8033E+02   yforce=   0.5250E+02  zforce=   0.0000E+00   energy=   0.0000E+00
 nd#      11  xforce=   0.5274E+02   yforce=   0.5274E+02  zforce=   0.0000E+00   energy=   0.0000E+00
 nd#      23  xforce=   0.5250E+02   yforce=   0.8033E+02  zforce=   0.0000E+00   energy=   0.0000E+00
              xtotal=   0.1856E+03   ytotal=   0.1856E+03  ztotal=   0.0000E+00   etotal=   0.0000E+00

 n o d a l   f o r c e/e n e r g y    o u t p u t  t=   1.10000E-02

 pressure boundary condition forces 

 nd#       1  xforce=   0.8104E+02   yforce=   0.5502E+02  zforce=   0.0000E+00   energy=   0.0000E+00
 nd#      11  xforce=   0.5527E+02   yforce=   0.5527E+02  zforce=   0.0000E+00   energy=   0.0000E+00
 nd#      23  xforce=   0.5502E+02   yforce=   0.8104E+02  zforce=   0.0000E+00   energy=   0.0000E+00
              xtotal=   0.1913E+03   ytotal=   0.1913E+03  ztotal=   0.0000E+00   etotal=   0.0000E+00

 n o d a l   f o r c e/e n e r g y    o u t p u t  t=   1.15000E-02

 pressure boundary condition forces 

 nd#       1  xforce=   0.8099E+02   yforce=   0.5752E+02  zforce=   0.0000E+00   energy=   0.0000E+00
 nd#      11  xforce=   0.5783E+02   yforce=   0.5783E+02  zforce=   0.0000E+00   energy=   0.0000E+00
 nd#      23  xforce=   0.5752E+02   yforce=   0.8099E+02  zforce=   0.0000E+00   energy=   0.0000E+00
              xtotal=   0.1963E+03   ytotal=   0.1963E+03  ztotal=   0.0000E+00   etotal=   0.0000E+00

 n o d a l   f o r c e/e n e r g y    o u t p u t  t=   1.20000E-02

 pressure boundary condition forces 

 nd#       1  xforce=   0.8305E+02   yforce=   0.6008E+02  zforce=   0.0000E+00   energy=   0.0000E+00
 nd#      11  xforce=   0.6075E+02   yforce=   0.6075E+02  zforce=   0.0000E+00   energy=   0.0000E+00
 nd#      23  xforce=   0.6008E+02   yforce=   0.8305E+02  zforce=   0.0000E+00   energy=   0.0000E+00
              xtotal=   0.2039E+03   ytotal=   0.2039E+03  ztotal=   0.0000E+00   etotal=   0.0000E+00

 n o d a l   f o r c e/e n e r g y    o u t p u t  t=   1.25000E-02

 pressure boundary condition forces 

 nd#       1  xforce=   0.8260E+02   yforce=   0.6254E+02  zforce=   0.0000E+00   energy=   0.0000E+00
 nd#      11  xforce=   0.6382E+02   yforce=   0.6382E+02  zforce=   0.0000E+00   energy=   0.0000E+00
 nd#      23  xforce=   0.6254E+02   yforce=   0.8260E+02  zforce=   0.0000E+00   energy=   0.0000E+00
              xtotal=   0.2090E+03   ytotal=   0.2090E+03  ztotal=   0.0000E+00   etotal=   0.0000E+00

 n o d a l   f o r c e/e n e r g y    o u t p u t  t=   1.30000E-02

 pressure boundary condition forces 

 nd#       1  xforce=   0.8211E+02   yforce=   0.6484E+02  zforce=   0.0000E+00   energy=   0.0000E+00
 nd#      11  xforce=   0.6732E+02   yforce=   0.6732E+02  zforce=   0.0000E+00   energy=   0.0000E+00
 nd#      23  xforce=   0.6484E+02   yforce=   0.8211E+02  zforce=   0.0000E+00   energy=   0.0000E+00
              xtotal=   0.2143E+03   ytotal=   0.2143E+03  ztotal=   0.0000E+00   etotal=   0.0000E+00

 n o d a l   f o r c e/e n e r g y    o u t p u t  t=   1.35000E-02

 pressure boundary condition forces 

 nd#       1  xforce=   0.8108E+02   yforce=   0.6726E+02  zforce=   0.0000E+00   energy=   0.0000E+00
 nd#      11  xforce=   0.7064E+02   yforce=   0.7064E+02  zforce=   0.0000E+00   energy=   0.0000E+00
 nd#      23  xforce=   0.6726E+02   yforce=   0.8108E+02  zforce=   0.0000E+00   energy=   0.0000E+00
              xtotal=   0.2190E+03   ytotal=   0.2190E+03  ztotal=   0.0000E+00   etotal=   0.0000E+00

 n o d a l   f o r c e/e n e r g y    o u t p u t  t=   1.40000E-02

 pressure boundary condition forces 

 nd#       1  xforce=   0.7985E+02   yforce=   0.6980E+02  zforce=   0.0000E+00   energy=   0.0000E+00
 nd#      11  xforce=   0.7408E+02   yforce=   0.7408E+02  zforce=   0.0000E+00   energy=   0.0000E+00
 nd#      23  xforce=   0.6980E+02   yforce=   0.7985E+02  zforce=   0.0000E+00   energy=   0.0000E+00
              xtotal=   0.2237E+03   ytotal=   0.2237E+03  ztotal=   0.0000E+00   etotal=   0.0000E+00

 n o d a l   f o r c e/e n e r g y    o u t p u t  t=   1.45000E-02

 pressure boundary condition forces 

 nd#       1  xforce=   0.7860E+02   yforce=   0.7212E+02  zforce=   0.0000E+00   energy=   0.0000E+00
 nd#      11  xforce=   0.7737E+02   yforce=   0.7737E+02  zforce=   0.0000E+00   energy=   0.0000E+00
 nd#      23  xforce=   0.7212E+02   yforce=   0.7860E+02  zforce=   0.0000E+00   energy=   0.0000E+00
              xtotal=   0.2281E+03   ytotal=   0.2281E+03  ztotal=   0.0000E+00   etotal=   0.0000E+00

 n o d a l   f o r c e/e n e r g y    o u t p u t  t=   1.50000E-02

 pressure boundary condition forces 

 nd#       1  xforce=   0.7712E+02   yforce=   0.7462E+02  zforce=   0.0000E+00   energy=   0.0000E+00
 nd#      11  xforce=   0.8078E+02   yforce=   0.8078E+02  zforce=   0.0000E+00   energy=   0.0000E+00
 nd#      23  xforce=   0.7462E+02   yforce=   0.7712E+02  zforce=   0.0000E+00   energy=   0.0000E+00
              xtotal=   0.2325E+03   ytotal=   0.2325E+03  ztotal=   0.0000E+00   etotal=   0.0000E+00

 n o d a l   f o r c e/e n e r g y    o u t p u t  t=   1.55000E-02

 pressure boundary condition forces 

 nd#       1  xforce=   0.7549E+02   yforce=   0.7713E+02  zforce=   0.0000E+00   energy=   0.0000E+00
 nd#      11  xforce=   0.8422E+02   yforce=   0.8422E+02  zforce=   0.0000E+00   energy=   0.0000E+00
 nd#      23  xforce=   0.7713E+02   yforce=   0.7549E+02  zforce=   0.0000E+00   energy=   0.0000E+00
              xtotal=   0.2368E+03   ytotal=   0.2368E+03  ztotal=   0.0000E+00   etotal=   0.0000E+00

 n o d a l   f o r c e/e n e r g y    o u t p u t  t=   1.60000E-02

 pressure boundary condition forces 

 nd#       1  xforce=   0.7372E+02   yforce=   0.7963E+02  zforce=   0.0000E+00   energy=   0.0000E+00
 nd#      11  xforce=   0.8765E+02   yforce=   0.8765E+02  zforce=   0.0000E+00   energy=   0.0000E+00
 nd#      23  xforce=   0.7963E+02   yforce=   0.7372E+02  zforce=   0.0000E+00   energy=   0.0000E+00
              xtotal=   0.2410E+03   ytotal=   0.2410E+03  ztotal=   0.0000E+00   etotal=   0.0000E+00

 n o d a l   f o r c e/e n e r g y    o u t p u t  t=   1.65000E-02

 pressure boundary condition forces 

 nd#       1  xforce=   0.7195E+02   yforce=   0.8192E+02  zforce=   0.0000E+00   energy=   0.0000E+00
 nd#      11  xforce=   0.9094E+02   yforce=   0.9094E+02  zforce=   0.0000E+00   energy=   0.0000E+00
 nd#      23  xforce=   0.8192E+02   yforce=   0.7195E+02  zforce=   0.0000E+00   energy=   0.0000E+00
              xtotal=   0.2448E+03   ytotal=   0.2448E+03  ztotal=   0.0000E+00   etotal=   0.0000E+00

 n o d a l   f o r c e/e n e r g y    o u t p u t  t=   1.70000E-02

 pressure boundary condition forces 

 nd#       1  xforce=   0.6999E+02   yforce=   0.8438E+02  zforce=   0.0000E+00   energy=   0.0000E+00
 nd#      11  xforce=   0.9438E+02   yforce=   0.9438E+02  zforce=   0.0000E+00   energy=   0.0000E+00
 nd#      23  xforce=   0.8438E+02   yforce=   0.6999E+02  zforce=   0.0000E+00   energy=   0.0000E+00
              xtotal=   0.2488E+03   ytotal=   0.2488E+03  ztotal=   0.0000E+00   etotal=   0.0000E+00

 n o d a l   f o r c e/e n e r g y    o u t p u t  t=   1.75000E-02

 pressure boundary condition forces 

 nd#       1  xforce=   0.6789E+02   yforce=   0.8687E+02  zforce=   0.0000E+00   energy=   0.0000E+00
 nd#      11  xforce=   0.9783E+02   yforce=   0.9783E+02  zforce=   0.0000E+00   energy=   0.0000E+00
 nd#      23  xforce=   0.8687E+02   yforce=   0.6789E+02  zforce=   0.0000E+00   energy=   0.0000E+00
              xtotal=   0.2526E+03   ytotal=   0.2526E+03  ztotal=   0.0000E+00   etotal=   0.0000E+00

 n o d a l   f o r c e/e n e r g y    o u t p u t  t=   1.80000E-02

 pressure boundary condition forces 

 nd#       1  xforce=   0.6569E+02   yforce=   0.8934E+02  zforce=   0.0000E+00   energy=   0.0000E+00
 nd#      11  xforce=   0.1013E+03   yforce=   0.1013E+03  zforce=   0.0000E+00   energy=   0.0000E+00
 nd#      23  xforce=   0.8934E+02   yforce=   0.6569E+02  zforce=   0.0000E+00   energy=   0.0000E+00
              xtotal=   0.2563E+03   ytotal=   0.2563E+03  ztotal=   0.0000E+00   etotal=   0.0000E+00

 n o d a l   f o r c e/e n e r g y    o u t p u t  t=   1.85000E-02

 pressure boundary condition forces 

 nd#       1  xforce=   0.6340E+02   yforce=   0.9182E+02  zforce=   0.0000E+00   energy=   0.0000E+00
 nd#      11  xforce=   0.1047E+03   yforce=   0.1047E+03  zforce=   0.0000E+00   energy=   0.0000E+00
 nd#      23  xforce=   0.9182E+02   yforce=   0.6340E+02  zforce=   0.0000E+00   energy=   0.0000E+00
              xtotal=   0.2599E+03   ytotal=   0.2599E+03  ztotal=   0.0000E+00   etotal=   0.0000E+00

 n o d a l   f o r c e/e n e r g y    o u t p u t  t=   1.90000E-02

 pressure boundary condition forces 

 nd#       1  xforce=   0.6102E+02   yforce=   0.9428E+02  zforce=   0.0000E+00   energy=   0.0000E+00
 nd#      11  xforce=   0.1082E+03   yforce=   0.1082E+03  zforce=   0.0000E+00   energy=   0.0000E+00
 nd#      23  xforce=   0.9428E+02   yforce=   0.6102E+02  zforce=   0.0000E+00   energy=   0.0000E+00
              xtotal=   0.2635E+03   ytotal=   0.2635E+03  ztotal=   0.0000E+00   etotal=   0.0000E+00

 n o d a l   f o r c e/e n e r g y    o u t p u t  t=   1.95000E-02

 pressure boundary condition forces 

 nd#       1  xforce=   0.5855E+02   yforce=   0.9674E+02  zforce=   0.0000E+00   energy=   0.0000E+00
 nd#      11  xforce=   0.1116E+03   yforce=   0.1116E+03  zforce=   0.0000E+00   energy=   0.0000E+00
 nd#      23  xforce=   0.9674E+02   yforce=   0.5855E+02  zforce=   0.0000E+00   energy=   0.0000E+00
              xtotal=   0.2669E+03   ytotal=   0.2669E+03  ztotal=   0.0000E+00   etotal=   0.0000E+00

 n o d a l   f o r c e/e n e r g y    o u t p u t  t=   2.00000E-02

 pressure boundary condition forces 

 nd#       1  xforce=   0.5595E+02   yforce=   0.9926E+02  zforce=   0.0000E+00   energy=   0.0000E+00
 nd#      11  xforce=   0.1151E+03   yforce=   0.1151E+03  zforce=   0.0000E+00   energy=   0.0000E+00
 nd#      23  xforce=   0.9926E+02   yforce=   0.5595E+02  zforce=   0.0000E+00   energy=   0.0000E+00
              xtotal=   0.2703E+03   ytotal=   0.2703E+03  ztotal=   0.0000E+00   etotal=   0.0000E+00

 n o d a l   f o r c e/e n e r g y    o u t p u t  t=   2.05000E-02

 pressure boundary condition forces 

 nd#       1  xforce=   0.5352E+02   yforce=   0.1015E+03  zforce=   0.0000E+00   energy=   0.0000E+00
 nd#      11  xforce=   0.1183E+03   yforce=   0.1183E+03  zforce=   0.0000E+00   energy=   0.0000E+00
 nd#      23  xforce=   0.1015E+03   yforce=   0.5352E+02  zforce=   0.0000E+00   energy=   0.0000E+00
              xtotal=   0.2734E+03   ytotal=   0.2734E+03  ztotal=   0.0000E+00   etotal=   0.0000E+00

 n o d a l   f o r c e/e n e r g y    o u t p u t  t=   2.10000E-02

 pressure boundary condition forces 

 nd#       1  xforce=   0.5066E+02   yforce=   0.1042E+03  zforce=   0.0000E+00   energy=   0.0000E+00
 nd#      11  xforce=   0.1219E+03   yforce=   0.1219E+03  zforce=   0.0000E+00   energy=   0.0000E+00
 nd#      23  xforce=   0.1042E+03   yforce=   0.5066E+02  zforce=   0.0000E+00   energy=   0.0000E+00
              xtotal=   0.2767E+03   ytotal=   0.2767E+03  ztotal=   0.0000E+00   etotal=   0.0000E+00

 n o d a l   f o r c e/e n e r g y    o u t p u t  t=   2.15000E-02

 pressure boundary condition forces 

 nd#       1  xforce=   0.4811E+02   yforce=   0.1064E+03  zforce=   0.0000E+00   energy=   0.0000E+00
 nd#      11  xforce=   0.1251E+03   yforce=   0.1251E+03  zforce=   0.0000E+00   energy=   0.0000E+00
 nd#      23  xforce=   0.1064E+03   yforce=   0.4811E+02  zforce=   0.0000E+00   energy=   0.0000E+00
              xtotal=   0.2796E+03   ytotal=   0.2796E+03  ztotal=   0.0000E+00   etotal=   0.0000E+00

 n o d a l   f o r c e/e n e r g y    o u t p u t  t=   2.20000E-02

 pressure boundary condition forces 

 nd#       1  xforce=   0.4533E+02   yforce=   0.1088E+03  zforce=   0.0000E+00   energy=   0.0000E+00
 nd#      11  xforce=   0.1286E+03   yforce=   0.1286E+03  zforce=   0.0000E+00   energy=   0.0000E+00
 nd#      23  xforce=   0.1088E+03   yforce=   0.4533E+02  zforce=   0.0000E+00   energy=   0.0000E+00
              xtotal=   0.2828E+03   ytotal=   0.2828E+03  ztotal=   0.0000E+00   etotal=   0.0000E+00

 n o d a l   f o r c e/e n e r g y    o u t p u t  t=   2.25000E-02

 pressure boundary condition forces 

 nd#       1  xforce=   0.4248E+02   yforce=   0.1113E+03  zforce=   0.0000E+00   energy=   0.0000E+00
 nd#      11  xforce=   0.1321E+03   yforce=   0.1321E+03  zforce=   0.0000E+00   energy=   0.0000E+00
 nd#      23  xforce=   0.1113E+03   yforce=   0.4248E+02  zforce=   0.0000E+00   energy=   0.0000E+00
              xtotal=   0.2858E+03   ytotal=   0.2858E+03  ztotal=   0.0000E+00   etotal=   0.0000E+00

 n o d a l   f o r c e/e n e r g y    o u t p u t  t=   2.30000E-02

 pressure boundary condition forces 

 nd#       1  xforce=   0.3956E+02   yforce=   0.1137E+03  zforce=   0.0000E+00   energy=   0.0000E+00
 nd#      11  xforce=   0.1356E+03   yforce=   0.1356E+03  zforce=   0.0000E+00   energy=   0.0000E+00
 nd#      23  xforce=   0.1137E+03   yforce=   0.3956E+02  zforce=   0.0000E+00   energy=   0.0000E+00
              xtotal=   0.2889E+03   ytotal=   0.2889E+03  ztotal=   0.0000E+00   etotal=   0.0000E+00

 n o d a l   f o r c e/e n e r g y    o u t p u t  t=   2.35000E-02

 pressure boundary condition forces 

 nd#       1  xforce=   0.3659E+02   yforce=   0.1161E+03  zforce=   0.0000E+00   energy=   0.0000E+00
 nd#      11  xforce=   0.1391E+03   yforce=   0.1391E+03  zforce=   0.0000E+00   energy=   0.0000E+00
 nd#      23  xforce=   0.1161E+03   yforce=   0.3659E+02  zforce=   0.0000E+00   energy=   0.0000E+00
              xtotal=   0.2918E+03   ytotal=   0.2918E+03  ztotal=   0.0000E+00   etotal=   0.0000E+00

 n o d a l   f o r c e/e n e r g y    o u t p u t  t=   2.40000E-02

 pressure boundary condition forces 

 nd#       1  xforce=   0.3356E+02   yforce=   0.1185E+03  zforce=   0.0000E+00   energy=   0.0000E+00
 nd#      11  xforce=   0.1426E+03   yforce=   0.1426E+03  zforce=   0.0000E+00   energy=   0.0000E+00
 nd#      23  xforce=   0.1185E+03   yforce=   0.3356E+02  zforce=   0.0000E+00   energy=   0.0000E+00
              xtotal=   0.2947E+03   ytotal=   0.2947E+03  ztotal=   0.0000E+00   etotal=   0.0000E+00

 n o d a l   f o r c e/e n e r g y    o u t p u t  t=   2.45000E-02

 pressure boundary condition forces 

 nd#       1  xforce=   0.3048E+02   yforce=   0.1209E+03  zforce=   0.0000E+00   energy=   0.0000E+00
 nd#      11  xforce=   0.1461E+03   yforce=   0.1461E+03  zforce=   0.0000E+00   energy=   0.0000E+00
 nd#      23  xforce=   0.1209E+03   yforce=   0.3048E+02  zforce=   0.0000E+00   energy=   0.0000E+00
              xtotal=   0.2975E+03   ytotal=   0.2975E+03  ztotal=   0.0000E+00   etotal=   0.0000E+00

 n o d a l   f o r c e/e n e r g y    o u t p u t  t=   2.50000E-02

 pressure boundary condition forces 

 nd#       1  xforce=   0.2735E+02   yforce=   0.1234E+03  zforce=   0.0000E+00   energy=   0.0000E+00
 nd#      11  xforce=   0.1496E+03   yforce=   0.1496E+03  zforce=   0.0000E+00   energy=   0.0000E+00
 nd#      23  xforce=   0.1234E+03   yforce=   0.2735E+02  zforce=   0.0000E+00   energy=   0.0000E+00
              xtotal=   0.3003E+03   ytotal=   0.3003E+03  ztotal=   0.0000E+00   etotal=   0.0000E+00

 n o d a l   f o r c e/e n e r g y    o u t p u t  t=   2.55000E-02

 pressure boundary condition forces 

 nd#       1  xforce=   0.2418E+02   yforce=   0.1258E+03  zforce=   0.0000E+00   energy=   0.0000E+00
 nd#      11  xforce=   0.1531E+03   yforce=   0.1531E+03  zforce=   0.0000E+00   energy=   0.0000E+00
 nd#      23  xforce=   0.1258E+03   yforce=   0.2418E+02  zforce=   0.0000E+00   energy=   0.0000E+00
              xtotal=   0.3030E+03   ytotal=   0.3030E+03  ztotal=   0.0000E+00   etotal=   0.0000E+00

 n o d a l   f o r c e/e n e r g y    o u t p u t  t=   2.60000E-02

 pressure boundary condition forces 

 nd#       1  xforce=   0.2095E+02   yforce=   0.1282E+03  zforce=   0.0000E+00   energy=   0.0000E+00
 nd#      11  xforce=   0.1566E+03   yforce=   0.1566E+03  zforce=   0.0000E+00   energy=   0.0000E+00
 nd#      23  xforce=   0.1282E+03   yforce=   0.2095E+02  zforce=   0.0000E+00   energy=   0.0000E+00
              xtotal=   0.3057E+03   ytotal=   0.3057E+03  ztotal=   0.0000E+00   etotal=   0.0000E+00

 n o d a l   f o r c e/e n e r g y    o u t p u t  t=   2.65000E-02

 pressure boundary condition forces 

 nd#       1  xforce=   0.1768E+02   yforce=   0.1306E+03  zforce=   0.0000E+00   energy=   0.0000E+00
 nd#      11  xforce=   0.1601E+03   yforce=   0.1601E+03  zforce=   0.0000E+00   energy=   0.0000E+00
 nd#      23  xforce=   0.1306E+03   yforce=   0.1768E+02  zforce=   0.0000E+00   energy=   0.0000E+00
              xtotal=   0.3083E+03   ytotal=   0.3083E+03  ztotal=   0.0000E+00   etotal=   0.0000E+00

 n o d a l   f o r c e/e n e r g y    o u t p u t  t=   2.70000E-02

 pressure boundary condition forces 

 nd#       1  xforce=   0.1436E+02   yforce=   0.1330E+03  zforce=   0.0000E+00   energy=   0.0000E+00
 nd#      11  xforce=   0.1636E+03   yforce=   0.1636E+03  zforce=   0.0000E+00   energy=   0.0000E+00
 nd#      23  xforce=   0.1330E+03   yforce=   0.1436E+02  zforce=   0.0000E+00   energy=   0.0000E+00
              xtotal=   0.3109E+03   ytotal=   0.3109E+03  ztotal=   0.0000E+00   etotal=   0.0000E+00

 n o d a l   f o r c e/e n e r g y    o u t p u t  t=   2.75000E-02

 pressure boundary condition forces 

 nd#       1  xforce=   0.1100E+02   yforce=   0.1353E+03  zforce=   0.0000E+00   energy=   0.0000E+00
 nd#      11  xforce=   0.1671E+03   yforce=   0.1671E+03  zforce=   0.0000E+00   energy=   0.0000E+00
 nd#      23  xforce=   0.1353E+03   yforce=   0.1100E+02  zforce=   0.0000E+00   energy=   0.0000E+00
              xtotal=   0.3134E+03   ytotal=   0.3134E+03  ztotal=   0.0000E+00   etotal=   0.0000E+00

 n o d a l   f o r c e/e n e r g y    o u t p u t  t=   2.80000E-02

 pressure boundary condition forces 

 nd#       1  xforce=   0.7597E+01   yforce=   0.1377E+03  zforce=   0.0000E+00   energy=   0.0000E+00
 nd#      11  xforce=   0.1706E+03   yforce=   0.1706E+03  zforce=   0.0000E+00   energy=   0.0000E+00
 nd#      23  xforce=   0.1377E+03   yforce=   0.7597E+01  zforce=   0.0000E+00   energy=   0.0000E+00
              xtotal=   0.3159E+03   ytotal=   0.3159E+03  ztotal=   0.0000E+00   etotal=   0.0000E+00

 n o d a l   f o r c e/e n e r g y    o u t p u t  t=   2.85000E-02

 pressure boundary condition forces 

 nd#       1  xforce=   0.4151E+01   yforce=   0.1401E+03  zforce=   0.0000E+00   energy=   0.0000E+00
 nd#      11  xforce=   0.1741E+03   yforce=   0.1741E+03  zforce=   0.0000E+00   energy=   0.0000E+00
 nd#      23  xforce=   0.1401E+03   yforce=   0.4151E+01  zforce=   0.0000E+00   energy=   0.0000E+00
              xtotal=   0.3183E+03   ytotal=   0.3183E+03  ztotal=   0.0000E+00   etotal=   0.0000E+00

 n o d a l   f o r c e/e n e r g y    o u t p u t  t=   2.90000E-02

 pressure boundary condition forces 

 nd#       1  xforce=   0.6627E+00   yforce=   0.1425E+03  zforce=   0.0000E+00   energy=   0.0000E+00
 nd#      11  xforce=   0.1776E+03   yforce=   0.1776E+03  zforce=   0.0000E+00   energy=   0.0000E+00
 nd#      23  xforce=   0.1425E+03   yforce=   0.6627E+00  zforce=   0.0000E+00   energy=   0.0000E+00
              xtotal=   0.3207E+03   ytotal=   0.3207E+03  ztotal=   0.0000E+00   etotal=   0.0000E+00

 n o d a l   f o r c e/e n e r g y    o u t p u t  t=   2.95000E-02

 pressure boundary condition forces 

 nd#       1  xforce=  -0.2866E+01   yforce=   0.1449E+03  zforce=   0.0000E+00   energy=   0.0000E+00
 nd#      11  xforce=   0.1811E+03   yforce=   0.1811E+03  zforce=   0.0000E+00   energy=   0.0000E+00
 nd#      23  xforce=   0.1449E+03   yforce=  -0.2866E+01  zforce=   0.0000E+00   energy=   0.0000E+00
              xtotal=   0.3231E+03   ytotal=   0.3231E+03  ztotal=   0.0000E+00   etotal=   0.0000E+00

 n o d a l   f o r c e/e n e r g y    o u t p u t  t=   3.00000E-02

 pressure boundary condition forces 

 nd#       1  xforce=  -0.6145E+01   yforce=   0.1471E+03  zforce=   0.0000E+00   energy=   0.0000E+00
 nd#      11  xforce=   0.1842E+03   yforce=   0.1842E+03  zforce=   0.0000E+00   energy=   0.0000E+00
 nd#      23  xforce=   0.1471E+03   yforce=  -0.6145E+01  zforce=   0.0000E+00   energy=   0.0000E+00
              xtotal=   0.3251E+03   ytotal=   0.3251E+03  ztotal=   0.0000E+00   etotal=   0.0000E+00

 n o d a l   f o r c e/e n e r g y    o u t p u t  t=   3.05000E-02

 pressure boundary condition forces 

 nd#       1  xforce=  -0.9701E+01   yforce=   0.1494E+03  zforce=   0.0000E+00   energy=   0.0000E+00
 nd#      11  xforce=   0.1877E+03   yforce=   0.1877E+03  zforce=   0.0000E+00   energy=   0.0000E+00
 nd#      23  xforce=   0.1494E+03   yforce=  -0.9701E+01  zforce=   0.0000E+00   energy=   0.0000E+00
              xtotal=   0.3274E+03   ytotal=   0.3274E+03  ztotal=   0.0000E+00   etotal=   0.0000E+00

 n o d a l   f o r c e/e n e r g y    o u t p u t  t=   3.10000E-02

 pressure boundary condition forces 

 nd#       1  xforce=  -0.1334E+02   yforce=   0.1518E+03  zforce=   0.0000E+00   energy=   0.0000E+00
 nd#      11  xforce=   0.1912E+03   yforce=   0.1912E+03  zforce=   0.0000E+00   energy=   0.0000E+00
 nd#      23  xforce=   0.1518E+03   yforce=  -0.1334E+02  zforce=   0.0000E+00   energy=   0.0000E+00
              xtotal=   0.3297E+03   ytotal=   0.3297E+03  ztotal=   0.0000E+00   etotal=   0.0000E+00

 n o d a l   f o r c e/e n e r g y    o u t p u t  t=   3.15000E-02

 pressure boundary condition forces 

 nd#       1  xforce=  -0.1702E+02   yforce=   0.1542E+03  zforce=   0.0000E+00   energy=   0.0000E+00
 nd#      11  xforce=   0.1948E+03   yforce=   0.1948E+03  zforce=   0.0000E+00   energy=   0.0000E+00
 nd#      23  xforce=   0.1542E+03   yforce=  -0.1702E+02  zforce=   0.0000E+00   energy=   0.0000E+00
              xtotal=   0.3319E+03   ytotal=   0.3319E+03  ztotal=   0.0000E+00   etotal=   0.0000E+00

 n o d a l   f o r c e/e n e r g y    o u t p u t  t=   3.20000E-02

 pressure boundary condition forces 

 nd#       1  xforce=  -0.2074E+02   yforce=   0.1565E+03  zforce=   0.0000E+00   energy=   0.0000E+00
 nd#      11  xforce=   0.1983E+03   yforce=   0.1983E+03  zforce=   0.0000E+00   energy=   0.0000E+00
 nd#      23  xforce=   0.1565E+03   yforce=  -0.2074E+02  zforce=   0.0000E+00   energy=   0.0000E+00
              xtotal=   0.3341E+03   ytotal=   0.3341E+03  ztotal=   0.0000E+00   etotal=   0.0000E+00

 n o d a l   f o r c e/e n e r g y    o u t p u t  t=   3.25000E-02

 pressure boundary condition forces 

 nd#       1  xforce=  -0.2449E+02   yforce=   0.1589E+03  zforce=   0.0000E+00   energy=   0.0000E+00
 nd#      11  xforce=   0.2018E+03   yforce=   0.2018E+03  zforce=   0.0000E+00   energy=   0.0000E+00
 nd#      23  xforce=   0.1589E+03   yforce=  -0.2449E+02  zforce=   0.0000E+00   energy=   0.0000E+00
              xtotal=   0.3362E+03   ytotal=   0.3362E+03  ztotal=   0.0000E+00   etotal=   0.0000E+00

 n o d a l   f o r c e/e n e r g y    o u t p u t  t=   3.30000E-02

 pressure boundary condition forces 

 nd#       1  xforce=  -0.2829E+02   yforce=   0.1613E+03  zforce=   0.0000E+00   energy=   0.0000E+00
 nd#      11  xforce=   0.2053E+03   yforce=   0.2053E+03  zforce=   0.0000E+00   energy=   0.0000E+00
 nd#      23  xforce=   0.1613E+03   yforce=  -0.2829E+02  zforce=   0.0000E+00   energy=   0.0000E+00
              xtotal=   0.3383E+03   ytotal=   0.3383E+03  ztotal=   0.0000E+00   etotal=   0.0000E+00

 n o d a l   f o r c e/e n e r g y    o u t p u t  t=   3.35000E-02

 pressure boundary condition forces 

 nd#       1  xforce=  -0.3212E+02   yforce=   0.1636E+03  zforce=   0.0000E+00   energy=   0.0000E+00
 nd#      11  xforce=   0.2088E+03   yforce=   0.2088E+03  zforce=   0.0000E+00   energy=   0.0000E+00
 nd#      23  xforce=   0.1636E+03   yforce=  -0.3212E+02  zforce=   0.0000E+00   energy=   0.0000E+00
              xtotal=   0.3403E+03   ytotal=   0.3403E+03  ztotal=   0.0000E+00   etotal=   0.0000E+00

 n o d a l   f o r c e/e n e r g y    o u t p u t  t=   3.40000E-02

 pressure boundary condition forces 

 nd#       1  xforce=  -0.3599E+02   yforce=   0.1660E+03  zforce=   0.0000E+00   energy=   0.0000E+00
 nd#      11  xforce=   0.2123E+03   yforce=   0.2123E+03  zforce=   0.0000E+00   energy=   0.0000E+00
 nd#      23  xforce=   0.1660E+03   yforce=  -0.3599E+02  zforce=   0.0000E+00   energy=   0.0000E+00
              xtotal=   0.3424E+03   ytotal=   0.3424E+03  ztotal=   0.0000E+00   etotal=   0.0000E+00

 n o d a l   f o r c e/e n e r g y    o u t p u t  t=   3.45000E-02

 pressure boundary condition forces 

 nd#       1  xforce=  -0.3990E+02   yforce=   0.1684E+03  zforce=   0.0000E+00   energy=   0.0000E+00
 nd#      11  xforce=   0.2159E+03   yforce=   0.2159E+03  zforce=   0.0000E+00   energy=   0.0000E+00
 nd#      23  xforce=   0.1684E+03   yforce=  -0.3990E+02  zforce=   0.0000E+00   energy=   0.0000E+00
              xtotal=   0.3443E+03   ytotal=   0.3443E+03  ztotal=   0.0000E+00   etotal=   0.0000E+00

 n o d a l   f o r c e/e n e r g y    o u t p u t  t=   3.50000E-02

 pressure boundary condition forces 

 nd#       1  xforce=  -0.4385E+02   yforce=   0.1707E+03  zforce=   0.0000E+00   energy=   0.0000E+00
 nd#      11  xforce=   0.2194E+03   yforce=   0.2194E+03  zforce=   0.0000E+00   energy=   0.0000E+00
 nd#      23  xforce=   0.1707E+03   yforce=  -0.4385E+02  zforce=   0.0000E+00   energy=   0.0000E+00
              xtotal=   0.3463E+03   ytotal=   0.3463E+03  ztotal=   0.0000E+00   etotal=   0.0000E+00

 n o d a l   f o r c e/e n e r g y    o u t p u t  t=   3.55000E-02

 pressure boundary condition forces 

 nd#       1  xforce=  -0.4785E+02   yforce=   0.1731E+03  zforce=   0.0000E+00   energy=   0.0000E+00
 nd#      11  xforce=   0.2229E+03   yforce=   0.2229E+03  zforce=   0.0000E+00   energy=   0.0000E+00
 nd#      23  xforce=   0.1731E+03   yforce=  -0.4785E+02  zforce=   0.0000E+00   energy=   0.0000E+00
              xtotal=   0.3482E+03   ytotal=   0.3482E+03  ztotal=   0.0000E+00   etotal=   0.0000E+00

 n o d a l   f o r c e/e n e r g y    o u t p u t  t=   3.60000E-02

 pressure boundary condition forces 

 nd#       1  xforce=  -0.5188E+02   yforce=   0.1755E+03  zforce=   0.0000E+00   energy=   0.0000E+00
 nd#      11  xforce=   0.2264E+03   yforce=   0.2264E+03  zforce=   0.0000E+00   energy=   0.0000E+00
 nd#      23  xforce=   0.1755E+03   yforce=  -0.5188E+02  zforce=   0.0000E+00   energy=   0.0000E+00
              xtotal=   0.3500E+03   ytotal=   0.3500E+03  ztotal=   0.0000E+00   etotal=   0.0000E+00

 n o d a l   f o r c e/e n e r g y    o u t p u t  t=   3.65000E-02

 pressure boundary condition forces 

 nd#       1  xforce=  -0.5595E+02   yforce=   0.1778E+03  zforce=   0.0000E+00   energy=   0.0000E+00
 nd#      11  xforce=   0.2300E+03   yforce=   0.2300E+03  zforce=   0.0000E+00   energy=   0.0000E+00
 nd#      23  xforce=   0.1778E+03   yforce=  -0.5595E+02  zforce=   0.0000E+00   energy=   0.0000E+00
              xtotal=   0.3519E+03   ytotal=   0.3519E+03  ztotal=   0.0000E+00   etotal=   0.0000E+00

 n o d a l   f o r c e/e n e r g y    o u t p u t  t=   3.70000E-02

 pressure boundary condition forces 

 nd#       1  xforce=  -0.6007E+02   yforce=   0.1802E+03  zforce=   0.0000E+00   energy=   0.0000E+00
 nd#      11  xforce=   0.2335E+03   yforce=   0.2335E+03  zforce=   0.0000E+00   energy=   0.0000E+00
 nd#      23  xforce=   0.1802E+03   yforce=  -0.6007E+02  zforce=   0.0000E+00   energy=   0.0000E+00
              xtotal=   0.3536E+03   ytotal=   0.3536E+03  ztotal=   0.0000E+00   etotal=   0.0000E+00

 n o d a l   f o r c e/e n e r g y    o u t p u t  t=   3.75000E-02

 pressure boundary condition forces 

 nd#       1  xforce=  -0.6423E+02   yforce=   0.1825E+03  zforce=   0.0000E+00   energy=   0.0000E+00
 nd#      11  xforce=   0.2371E+03   yforce=   0.2371E+03  zforce=   0.0000E+00   energy=   0.0000E+00
 nd#      23  xforce=   0.1825E+03   yforce=  -0.6423E+02  zforce=   0.0000E+00   energy=   0.0000E+00
              xtotal=   0.3554E+03   ytotal=   0.3554E+03  ztotal=   0.0000E+00   etotal=   0.0000E+00

 n o d a l   f o r c e/e n e r g y    o u t p u t  t=   3.80000E-02

 pressure boundary condition forces 

 nd#       1  xforce=  -0.6843E+02   yforce=   0.1849E+03  zforce=   0.0000E+00   energy=   0.0000E+00
 nd#      11  xforce=   0.2406E+03   yforce=   0.2406E+03  zforce=   0.0000E+00   energy=   0.0000E+00
 nd#      23  xforce=   0.1849E+03   yforce=  -0.6843E+02  zforce=   0.0000E+00   energy=   0.0000E+00
              xtotal=   0.3571E+03   ytotal=   0.3571E+03  ztotal=   0.0000E+00   etotal=   0.0000E+00

 n o d a l   f o r c e/e n e r g y    o u t p u t  t=   3.85000E-02

 pressure boundary condition forces 

 nd#       1  xforce=  -0.7269E+02   yforce=   0.1872E+03  zforce=   0.0000E+00   energy=   0.0000E+00
 nd#      11  xforce=   0.2442E+03   yforce=   0.2442E+03  zforce=   0.0000E+00   energy=   0.0000E+00
 nd#      23  xforce=   0.1872E+03   yforce=  -0.7269E+02  zforce=   0.0000E+00   energy=   0.0000E+00
              xtotal=   0.3587E+03   ytotal=   0.3587E+03  ztotal=   0.0000E+00   etotal=   0.0000E+00

 n o d a l   f o r c e/e n e r g y    o u t p u t  t=   3.90000E-02

 pressure boundary condition forces 

 nd#       1  xforce=  -0.7699E+02   yforce=   0.1896E+03  zforce=   0.0000E+00   energy=   0.0000E+00
 nd#      11  xforce=   0.2477E+03   yforce=   0.2477E+03  zforce=   0.0000E+00   energy=   0.0000E+00
 nd#      23  xforce=   0.1896E+03   yforce=  -0.7699E+02  zforce=   0.0000E+00   energy=   0.0000E+00
              xtotal=   0.3603E+03   ytotal=   0.3603E+03  ztotal=   0.0000E+00   etotal=   0.0000E+00

 n o d a l   f o r c e/e n e r g y    o u t p u t  t=   3.95000E-02

 pressure boundary condition forces 

 nd#       1  xforce=  -0.8134E+02   yforce=   0.1919E+03  zforce=   0.0000E+00   energy=   0.0000E+00
 nd#      11  xforce=   0.2513E+03   yforce=   0.2513E+03  zforce=   0.0000E+00   energy=   0.0000E+00
 nd#      23  xforce=   0.1919E+03   yforce=  -0.8134E+02  zforce=   0.0000E+00   energy=   0.0000E+00
              xtotal=   0.3619E+03   ytotal=   0.3619E+03  ztotal=   0.0000E+00   etotal=   0.0000E+00

 n o d a l   f o r c e/e n e r g y    o u t p u t  t=   4.00000E-02

 pressure boundary condition forces 

 nd#       1  xforce=  -0.8574E+02   yforce=   0.1943E+03  zforce=   0.0000E+00   energy=   0.0000E+00
 nd#      11  xforce=   0.2548E+03   yforce=   0.2548E+03  zforce=   0.0000E+00   energy=   0.0000E+00
 nd#      23  xforce=   0.1943E+03   yforce=  -0.8574E+02  zforce=   0.0000E+00   energy=   0.0000E+00
              xtotal=   0.3634E+03   ytotal=   0.3634E+03  ztotal=   0.0000E+00   etotal=   0.0000E+00

 n o d a l   f o r c e/e n e r g y    o u t p u t  t=   4.05000E-02

 pressure boundary condition forces 

 nd#       1  xforce=  -0.9019E+02   yforce=   0.1966E+03  zforce=   0.0000E+00   energy=   0.0000E+00
 nd#      11  xforce=   0.2584E+03   yforce=   0.2584E+03  zforce=   0.0000E+00   energy=   0.0000E+00
 nd#      23  xforce=   0.1966E+03   yforce=  -0.9019E+02  zforce=   0.0000E+00   energy=   0.0000E+00
              xtotal=   0.3648E+03   ytotal=   0.3648E+03  ztotal=   0.0000E+00   etotal=   0.0000E+00

 n o d a l   f o r c e/e n e r g y    o u t p u t  t=   4.10000E-02

 pressure boundary condition forces 

 nd#       1  xforce=  -0.9470E+02   yforce=   0.1990E+03  zforce=   0.0000E+00   energy=   0.0000E+00
 nd#      11  xforce=   0.2620E+03   yforce=   0.2620E+03  zforce=   0.0000E+00   energy=   0.0000E+00
 nd#      23  xforce=   0.1990E+03   yforce=  -0.9470E+02  zforce=   0.0000E+00   energy=   0.0000E+00
              xtotal=   0.3662E+03   ytotal=   0.3662E+03  ztotal=   0.0000E+00   etotal=   0.0000E+00

 n o d a l   f o r c e/e n e r g y    o u t p u t  t=   4.15000E-02

 pressure boundary condition forces 

 nd#       1  xforce=  -0.9927E+02   yforce=   0.2013E+03  zforce=   0.0000E+00   energy=   0.0000E+00
 nd#      11  xforce=   0.2655E+03   yforce=   0.2655E+03  zforce=   0.0000E+00   energy=   0.0000E+00
 nd#      23  xforce=   0.2013E+03   yforce=  -0.9927E+02  zforce=   0.0000E+00   energy=   0.0000E+00
              xtotal=   0.3676E+03   ytotal=   0.3676E+03  ztotal=   0.0000E+00   etotal=   0.0000E+00

 n o d a l   f o r c e/e n e r g y    o u t p u t  t=   4.20000E-02

 pressure boundary condition forces 

 nd#       1  xforce=  -0.1039E+03   yforce=   0.2037E+03  zforce=   0.0000E+00   energy=   0.0000E+00
 nd#      11  xforce=   0.2691E+03   yforce=   0.2691E+03  zforce=   0.0000E+00   energy=   0.0000E+00
 nd#      23  xforce=   0.2037E+03   yforce=  -0.1039E+03  zforce=   0.0000E+00   energy=   0.0000E+00
              xtotal=   0.3689E+03   ytotal=   0.3689E+03  ztotal=   0.0000E+00   etotal=   0.0000E+00

 n o d a l   f o r c e/e n e r g y    o u t p u t  t=   4.25000E-02

 pressure boundary condition forces 

 nd#       1  xforce=  -0.1086E+03   yforce=   0.2060E+03  zforce=   0.0000E+00   energy=   0.0000E+00
 nd#      11  xforce=   0.2727E+03   yforce=   0.2727E+03  zforce=   0.0000E+00   energy=   0.0000E+00
 nd#      23  xforce=   0.2060E+03   yforce=  -0.1086E+03  zforce=   0.0000E+00   energy=   0.0000E+00
              xtotal=   0.3701E+03   ytotal=   0.3701E+03  ztotal=   0.0000E+00   etotal=   0.0000E+00

 n o d a l   f o r c e/e n e r g y    o u t p u t  t=   4.30000E-02

 pressure boundary condition forces 

 nd#       1  xforce=  -0.1133E+03   yforce=   0.2083E+03  zforce=   0.0000E+00   energy=   0.0000E+00
 nd#      11  xforce=   0.2763E+03   yforce=   0.2763E+03  zforce=   0.0000E+00   energy=   0.0000E+00
 nd#      23  xforce=   0.2083E+03   yforce=  -0.1133E+03  zforce=   0.0000E+00   energy=   0.0000E+00
              xtotal=   0.3713E+03   ytotal=   0.3713E+03  ztotal=   0.0000E+00   etotal=   0.0000E+00

 n o d a l   f o r c e/e n e r g y    o u t p u t  t=   4.35000E-02

 pressure boundary condition forces 

 nd#       1  xforce=  -0.1181E+03   yforce=   0.2107E+03  zforce=   0.0000E+00   energy=   0.0000E+00
 nd#      11  xforce=   0.2799E+03   yforce=   0.2799E+03  zforce=   0.0000E+00   energy=   0.0000E+00
 nd#      23  xforce=   0.2107E+03   yforce=  -0.1181E+03  zforce=   0.0000E+00   energy=   0.0000E+00
              xtotal=   0.3724E+03   ytotal=   0.3724E+03  ztotal=   0.0000E+00   etotal=   0.0000E+00

 n o d a l   f o r c e/e n e r g y    o u t p u t  t=   4.40000E-02

 pressure boundary condition forces 

 nd#       1  xforce=  -0.1231E+03   yforce=   0.2130E+03  zforce=   0.0000E+00   energy=   0.0000E+00
 nd#      11  xforce=   0.2835E+03   yforce=   0.2835E+03  zforce=   0.0000E+00   energy=   0.0000E+00
 nd#      23  xforce=   0.2130E+03   yforce=  -0.1231E+03  zforce=   0.0000E+00   energy=   0.0000E+00
              xtotal=   0.3734E+03   ytotal=   0.3734E+03  ztotal=   0.0000E+00   etotal=   0.0000E+00

 n o d a l   f o r c e/e n e r g y    o u t p u t  t=   4.45000E-02

 pressure boundary condition forces 

 nd#       1  xforce=  -0.1280E+03   yforce=   0.2153E+03  zforce=   0.0000E+00   energy=   0.0000E+00
 nd#      11  xforce=   0.2871E+03   yforce=   0.2871E+03  zforce=   0.0000E+00   energy=   0.0000E+00
 nd#      23  xforce=   0.2153E+03   yforce=  -0.1280E+03  zforce=   0.0000E+00   energy=   0.0000E+00
              xtotal=   0.3744E+03   ytotal=   0.3744E+03  ztotal=   0.0000E+00   etotal=   0.0000E+00

 n o d a l   f o r c e/e n e r g y    o u t p u t  t=   4.50000E-02

 pressure boundary condition forces 

 nd#       1  xforce=  -0.1331E+03   yforce=   0.2176E+03  zforce=   0.0000E+00   energy=   0.0000E+00
 nd#      11  xforce=   0.2908E+03   yforce=   0.2908E+03  zforce=   0.0000E+00   energy=   0.0000E+00
 nd#      23  xforce=   0.2176E+03   yforce=  -0.1331E+03  zforce=   0.0000E+00   energy=   0.0000E+00
              xtotal=   0.3754E+03   ytotal=   0.3754E+03  ztotal=   0.0000E+00   etotal=   0.0000E+00

 n o d a l   f o r c e/e n e r g y    o u t p u t  t=   4.55000E-02

 pressure boundary condition forces 

 nd#       1  xforce=  -0.1382E+03   yforce=   0.2200E+03  zforce=   0.0000E+00   energy=   0.0000E+00
 nd#      11  xforce=   0.2944E+03   yforce=   0.2944E+03  zforce=   0.0000E+00   energy=   0.0000E+00
 nd#      23  xforce=   0.2200E+03   yforce=  -0.1382E+03  zforce=   0.0000E+00   energy=   0.0000E+00
              xtotal=   0.3762E+03   ytotal=   0.3762E+03  ztotal=   0.0000E+00   etotal=   0.0000E+00

 n o d a l   f o r c e/e n e r g y    o u t p u t  t=   4.60000E-02

 pressure boundary condition forces 

 nd#       1  xforce=  -0.1446E+03   yforce=   0.2228E+03  zforce=   0.0000E+00   energy=   0.0000E+00
 nd#      11  xforce=   0.2986E+03   yforce=   0.2986E+03  zforce=   0.0000E+00   energy=   0.0000E+00
 nd#      23  xforce=   0.2228E+03   yforce=  -0.1446E+03  zforce=   0.0000E+00   energy=   0.0000E+00
              xtotal=   0.3768E+03   ytotal=   0.3768E+03  ztotal=   0.0000E+00   etotal=   0.0000E+00

 n o d a l   f o r c e/e n e r g y    o u t p u t  t=   4.65000E-02

 pressure boundary condition forces 

 nd#       1  xforce=  -0.1491E+03   yforce=   0.2248E+03  zforce=   0.0000E+00   energy=   0.0000E+00
 nd#      11  xforce=   0.3019E+03   yforce=   0.3019E+03  zforce=   0.0000E+00   energy=   0.0000E+00
 nd#      23  xforce=   0.2248E+03   yforce=  -0.1491E+03  zforce=   0.0000E+00   energy=   0.0000E+00
              xtotal=   0.3775E+03   ytotal=   0.3775E+03  ztotal=   0.0000E+00   etotal=   0.0000E+00

 n o d a l   f o r c e/e n e r g y    o u t p u t  t=   4.70000E-02

 pressure boundary condition forces 

 nd#       1  xforce=  -0.1557E+03   yforce=   0.2277E+03  zforce=   0.0000E+00   energy=   0.0000E+00
 nd#      11  xforce=   0.3063E+03   yforce=   0.3063E+03  zforce=   0.0000E+00   energy=   0.0000E+00
 nd#      23  xforce=   0.2277E+03   yforce=  -0.1557E+03  zforce=   0.0000E+00   energy=   0.0000E+00
              xtotal=   0.3783E+03   ytotal=   0.3783E+03  ztotal=   0.0000E+00   etotal=   0.0000E+00

 n o d a l   f o r c e/e n e r g y    o u t p u t  t=   4.75000E-02

 pressure boundary condition forces 

 nd#       1  xforce=  -0.1619E+03   yforce=   0.2302E+03  zforce=   0.0000E+00   energy=   0.0000E+00
 nd#      11  xforce=   0.3102E+03   yforce=   0.3102E+03  zforce=   0.0000E+00   energy=   0.0000E+00
 nd#      23  xforce=   0.2302E+03   yforce=  -0.1619E+03  zforce=   0.0000E+00   energy=   0.0000E+00
              xtotal=   0.3785E+03   ytotal=   0.3785E+03  ztotal=   0.0000E+00   etotal=   0.0000E+00

 n o d a l   f o r c e/e n e r g y    o u t p u t  t=   4.80000E-02

 pressure boundary condition forces 

 nd#       1  xforce=  -0.1679E+03   yforce=   0.2327E+03  zforce=   0.0000E+00   energy=   0.0000E+00
 nd#      11  xforce=   0.3143E+03   yforce=   0.3143E+03  zforce=   0.0000E+00   energy=   0.0000E+00
 nd#      23  xforce=   0.2327E+03   yforce=  -0.1679E+03  zforce=   0.0000E+00   energy=   0.0000E+00
              xtotal=   0.3791E+03   ytotal=   0.3791E+03  ztotal=   0.0000E+00   etotal=   0.0000E+00

 n o d a l   f o r c e/e n e r g y    o u t p u t  t=   4.85000E-02

 pressure boundary condition forces 

 nd#       1  xforce=  -0.1740E+03   yforce=   0.2353E+03  zforce=   0.0000E+00   energy=   0.0000E+00
 nd#      11  xforce=   0.3185E+03   yforce=   0.3185E+03  zforce=   0.0000E+00   energy=   0.0000E+00
 nd#      23  xforce=   0.2353E+03   yforce=  -0.1740E+03  zforce=   0.0000E+00   energy=   0.0000E+00
              xtotal=   0.3798E+03   ytotal=   0.3798E+03  ztotal=   0.0000E+00   etotal=   0.0000E+00

 n o d a l   f o r c e/e n e r g y    o u t p u t  t=   4.90000E-02

 pressure boundary condition forces 

 nd#       1  xforce=  -0.1805E+03   yforce=   0.2379E+03  zforce=   0.0000E+00   energy=   0.0000E+00
 nd#      11  xforce=   0.3229E+03   yforce=   0.3229E+03  zforce=   0.0000E+00   energy=   0.0000E+00
 nd#      23  xforce=   0.2379E+03   yforce=  -0.1805E+03  zforce=   0.0000E+00   energy=   0.0000E+00
              xtotal=   0.3803E+03   ytotal=   0.3803E+03  ztotal=   0.0000E+00   etotal=   0.0000E+00

 n o d a l   f o r c e/e n e r g y    o u t p u t  t=   4.95000E-02

 pressure boundary condition forces 

 nd#       1  xforce=  -0.1873E+03   yforce=   0.2407E+03  zforce=   0.0000E+00   energy=   0.0000E+00
 nd#      11  xforce=   0.3274E+03   yforce=   0.3274E+03  zforce=   0.0000E+00   energy=   0.0000E+00
 nd#      23  xforce=   0.2407E+03   yforce=  -0.1873E+03  zforce=   0.0000E+00   energy=   0.0000E+00
              xtotal=   0.3807E+03   ytotal=   0.3807E+03  ztotal=   0.0000E+00   etotal=   0.0000E+00

 n o d a l   f o r c e/e n e r g y    o u t p u t  t=   5.00000E-02

 pressure boundary condition forces 

 nd#       1  xforce=  -0.1944E+03   yforce=   0.2435E+03  zforce=   0.0000E+00   energy=   0.0000E+00
 nd#      11  xforce=   0.3319E+03   yforce=   0.3319E+03  zforce=   0.0000E+00   energy=   0.0000E+00
 nd#      23  xforce=   0.2435E+03   yforce=  -0.1944E+03  zforce=   0.0000E+00   energy=   0.0000E+00
              xtotal=   0.3810E+03   ytotal=   0.3810E+03  ztotal=   0.0000E+00   etotal=   0.0000E+00
