$# LS-DYNA Keyword file created by LS-PrePost(R) V4.2 - 09Jan2016(11:00)
$# Created on Apr-05-2016 (09:55:55)
*KEYWORD  
*CONTROL_ACCURACY
$#     osu       inn    pidosu      iacc    
         1         4         0         0
*CONTROL_ENERGY
$#    hgen      rwen    slnten     rylen     
         2         2         2         2
*CONTROL_SHELL
$#  wrpang     esort     irnxx    istupd    theory       bwc     miter      proj
      20.0         1        -1         0         2         2         1         0
$# rotascl    intgrd    lamsht    cstyp6    tshell      
       1.0         0         0         1         0
$# psstupd   sidt4tu     cntco    itsflg    irquad      
         0         0         0         0         2
$#  nfail1    nfail4   psnfail    keepcs     delfr   drcpsid    drcprm      
         0         0         0         0         0         0       1.0
*CONTROL_TERMINATION
$#  endtim    endcyc     dtmin    endeng    endmas      
     0.015         0       0.0       0.01.000000E8
*DATABASE_GLSTAT
$#      dt    binary      lcur     ioopt     
1.00000E-6         0         0         1
*DATABASE_BINARY_D3PLOT
$#      dt      lcdt      beam     npltc    psetid      
2.00000E-4         0         0         0         0
$#   ioopt     
         0
*BOUNDARY_PRESCRIBED_MOTION_RIGID_ID
$#      id                                                               heading
         0Plate - Motion
$#     pid       dof       vad      lcid        sf       vid     death     birth
         2         1         0         1  -10000.0         01.00000E28       0.0
*BOUNDARY_SPC_SET
$#    nsid       cid      dofx      dofy      dofz     dofrx     dofry     dofrz
         1         0         0         1         0         1         0         1
*SET_NODE_LIST_TITLE
NODESET(SPC) 1
$#     sid       da1       da2       da3       da4    solver      
         1       0.0       0.0       0.0       0.0MECH
$#    nid1      nid2      nid3      nid4      nid5      nid6      nid7      nid8
        11        22        33        44        55        66        77        88
        99       110       121       132       143       154       165       176
       187       198       209       220       231       242       253       264
       275       286       297       308       319       330       341       352
       363       374       385       396       407       418       429       440
       451         0         0         0         0         0         0         0
*BOUNDARY_SPC_SET
$#    nsid       cid      dofx      dofy      dofz     dofrx     dofry     dofrz
         2         0         0         0         1         1         1         0
*SET_NODE_LIST_TITLE
NODESET(SPC) 2
$#     sid       da1       da2       da3       da4    solver      
         2       0.0       0.0       0.0       0.0MECH
$#    nid1      nid2      nid3      nid4      nid5      nid6      nid7      nid8
       462       473       484       495       506       517       528       539
       550       561       572       583       594       605       616       627
       638       649       660       671       682       693       704       715
       726       737       748       759       770       781       792       803
       814       825       836       847       858       869       880       891
       902         0         0         0         0         0         0         0
*BOUNDARY_SPC_SET
$#    nsid       cid      dofx      dofy      dofz     dofrx     dofry     dofrz
         3         0         1         1         1         1         1         1
*SET_NODE_LIST_TITLE
NODESET(SPC) 3
$#     sid       da1       da2       da3       da4    solver      
         3       0.0       0.0       0.0       0.0MECH
$#    nid1      nid2      nid3      nid4      nid5      nid6      nid7      nid8
         1         2         3         4         5         6         7         8
         9        10        11       453       454       455       456       457
       458       459       460       461       462         0         0         0
*CONTACT_AUTOMATIC_SINGLE_SURFACE_ID
$#     cid                                                                 title
         1Crashbox contact
$#    ssid      msid     sstyp     mstyp    sboxid    mboxid       spr       mpr
         0         0         5         0         0         0         0         0
$#      fs        fd        dc        vc       vdc    penchk        bt        dt
       0.1       0.1       0.0       0.0      20.0         0       0.01.00000E20
$#     sfs       sfm       sst       mst      sfst      sfmt       fsf       vsf
       1.0       1.0       0.0       0.0       1.0       1.0       1.0       1.0
$#    soft    sofscl    lcidab    maxpar     sbopt     depth     bsort    frcfrq
         1       0.1         0     1.025       2.0         2         0         1
$#  penmax    thkopt    shlthk     snlog      isym     i2d3d    sldthk    sldstf
       0.0         0         0         0         0         0       0.0       0.0
$#    igap    ignodprfac/mpadtstif/mpar2   unused     unused    flangl   cid_rcf
         1         2       0.0       0.0                           0.0         0
*CONTACT_TIED_SHELL_EDGE_TO_SURFACE_OFFSET_ID
$#     cid                                                                 title
         2Plate - crashbox
$#    ssid      msid     sstyp     mstyp    sboxid    mboxid       spr       mpr
         1         2         3         3         0         0         0         0
$#      fs        fd        dc        vc       vdc    penchk        bt        dt
       0.0       0.0       0.0       0.0       0.0         0       0.01.00000E20
$#     sfs       sfm       sst       mst      sfst      sfmt       fsf       vsf
       1.0       1.0       0.0       0.0       1.0       1.0       1.0       1.0
*PART
$#                                                                         title
Crashbox
$#     pid     secid       mid     eosid      hgid      grav    adpopt      tmid
         1         1         1         0         0         0         0         0
*SECTION_SHELL_TITLE
Crashbox
$#   secid    elform      shrf       nip     propt   qr/irid     icomp     setyp
         1         2     0.833         5       1.0         0         0         1
$#      t1        t2        t3        t4      nloc     marea      idof    edgset
       1.5       1.5       1.5       1.5       0.0       0.0       0.0         0
*MAT_PIECEWISE_LINEAR_PLASTICITY_TITLE
Steel - crashbox
$#     mid        ro         e        pr      sigy      etan      fail      tdel
         17.85000E-9  210000.00.30000001     230.0     500.01.00000E21       0.0
$#       c         p      lcss      lcsr        vp  
       0.0       0.0         0         0       0.0
$#    eps1      eps2      eps3      eps4      eps5      eps6      eps7      eps8
       0.0       0.0       0.0       0.0       0.0       0.0       0.0       0.0
$#     es1       es2       es3       es4       es5       es6       es7       es8
       0.0       0.0       0.0       0.0       0.0       0.0       0.0       0.0
*PART
$#                                                                         title
Plate
$#     pid     secid       mid     eosid      hgid      grav    adpopt      tmid
         2         2         2         0         0         0         0         0
*SECTION_SHELL_TITLE
Plate
$#   secid    elform      shrf       nip     propt   qr/irid     icomp     setyp
         2         2     0.833         5       1.0         0         0         1
$#      t1        t2        t3        t4      nloc     marea      idof    edgset
       2.0       2.0       2.0       2.0       0.0       0.0       0.0         0
*MAT_RIGID_TITLE
Plate
$#     mid        ro         e        pr         n    couple         m     alias
         27.85000E-9  210000.00.30000001       0.0       0.0       0.0          
$#     cmo      con1      con2    
       1.0         5         7
$#lco or a1        a2        a3        v1        v2        v3  
       0.0       0.0       0.0       0.0       0.0       0.0
*DEFINE_CURVE_TITLE
Velocity
$#    lcid      sidr       sfa       sfo      offa      offo    dattyp     lcint
         1         0       1.0       1.0       0.0       0.0         0         0
$#                a1                  o1  
                 0.0                 1.0
                 1.0                 1.0
*ELEMENT_SHELL
$#   eid     pid      n1      n2      n3      n4      n5      n6      n7      n8
       1       1      12      13       2       1       0       0       0       0
       2       1      13      14       3       2       0       0       0       0
       3       1      14      15       4       3       0       0       0       0
       4       1      15      16       5       4       0       0       0       0
       5       1      16      17       6       5       0       0       0       0
       6       1      17      18       7       6       0       0       0       0
       7       1      18      19       8       7       0       0       0       0
       8       1      19      20       9       8       0       0       0       0
       9       1      20      21      10       9       0       0       0       0
      10       1      21      22      11      10       0       0       0       0
      11       1      23      24      13      12       0       0       0       0
      12       1      24      25      14      13       0       0       0       0
      13       1      25      26      15      14       0       0       0       0
      14       1      26      27      16      15       0       0       0       0
      15       1      27      28      17      16       0       0       0       0
      16       1      28      29      18      17       0       0       0       0
      17       1      29      30      19      18       0       0       0       0
      18       1      30      31      20      19       0       0       0       0
      19       1      31      32      21      20       0       0       0       0
      20       1      32      33      22      21       0       0       0       0
$ ... 880 like lines cut
*NODE
$#   nid               x               y               z      tc      rc  
       1             0.0             2.5             2.5       0       0
       2             0.0      4.99999952             0.0       0       0
       3             0.0      9.99999905             0.0       0       0
       4             0.0     15.00000095             0.0       0       0
       5             0.0            20.0             0.0       0       0
       6             0.0            25.0             0.0       0       0
       7             0.0     30.00000191             0.0       0       0
       8             0.0            35.0             0.0       0       0
       9             0.0            40.0             0.0       0       0
      10             0.0            45.0             0.0       0       0
      11             0.0            50.0             0.0       0       0
      12      5.00000095             2.5             2.5       0       0
      13      5.00000095             5.0             0.0       0       0
      14      5.00000095            10.0             0.0       0       0
      15      5.00000095     15.00000095             0.0       0       0
      16      5.00000143            20.0             0.0       0       0
      17      5.00000095            25.0             0.0       0       0
      18      5.00000095     30.00000191             0.0       0       0
      19      5.00000095            35.0             0.0       0       0
      20      5.00000095            40.0             0.0       0       0
$ ... 962 like lines cut
*END
