 LS-DYNA keyword deck by LS-PrePost                                      
                         ls-dyna smp.123264 d           date 01/12/2018



 e l e m e n t   s t r e s s   c a l c u l a t i o n s   f o r   t i m e  s t e p        1   ( at time 0.00000E+00 )

 element  materl(local) 
 ipt-shl  stress       sig-xx      sig-yy      sig-zz      sig-xy      sig-yz      sig-zx       plastic
           state                                                                                 strain 
     314-      1
   1-  2 elastic   0.0000E+00  0.0000E+00  0.0000E+00  0.0000E+00  0.0000E+00  0.0000E+00    0.0000E+00
   2-  2 elastic   0.0000E+00  0.0000E+00  0.0000E+00  0.0000E+00  0.0000E+00  0.0000E+00    0.0000E+00



 e l e m e n t   s t r e s s   c a l c u l a t i o n s   f o r   t i m e  s t e p        8   ( at time 5.00000E-04 )

 element  materl(local) 
 ipt-shl  stress       sig-xx      sig-yy      sig-zz      sig-xy      sig-yz      sig-zx       plastic
           state                                                                                 strain 
     314-      1
   1-  2 plastic   2.5568E+02  8.0911E-02  0.0000E+00 -2.9065E-04  0.0000E+00  0.0000E+00    5.9663E-03
   2-  2 plastic   2.5568E+02  8.0911E-02  0.0000E+00 -2.9065E-04  0.0000E+00  0.0000E+00    5.9663E-03



 e l e m e n t   s t r e s s   c a l c u l a t i o n s   f o r   t i m e  s t e p      135   ( at time 1.00000E-03 )

 element  materl(local) 
 ipt-shl  stress       sig-xx      sig-yy      sig-zz      sig-xy      sig-yz      sig-zx       plastic
           state                                                                                 strain 
     314-      1
   1-  2 plastic   2.6581E+02 -1.0112E-01  0.0000E+00  1.3723E-04 -2.0612E-17  1.2805E-17    1.5796E-02
   2-  2 plastic   2.6581E+02 -1.0112E-01  0.0000E+00  1.3723E-04 -2.0612E-17  1.2805E-17    1.5796E-02



 e l e m e n t   s t r e s s   c a l c u l a t i o n s   f o r   t i m e  s t e p      139   ( at time 1.50000E-03 )

 element  materl(local) 
 ipt-shl  stress       sig-xx      sig-yy      sig-zz      sig-xy      sig-yz      sig-zx       plastic
           state                                                                                 strain 
     314-      1
   1-  2 plastic   2.7491E+02 -3.9784E-01  0.0000E+00  1.0448E-04 -1.3877E-16  1.5650E-17    2.4997E-02
   2-  2 plastic   2.7491E+02 -3.9784E-01  0.0000E+00  1.0448E-04 -1.3877E-16  1.5650E-17    2.4997E-02



 e l e m e n t   s t r e s s   c a l c u l a t i o n s   f o r   t i m e  s t e p      143   ( at time 2.00000E-03 )

 element  materl(local) 
 ipt-shl  stress       sig-xx      sig-yy      sig-zz      sig-xy      sig-yz      sig-zx       plastic
           state                                                                                 strain 
     314-      1
   1-  2 plastic   2.8246E+02 -4.1358E-01  0.0000E+00 -1.1725E-04 -2.5332E-18 -3.5399E-16    3.2519E-02
   2-  2 plastic   2.8246E+02 -4.1358E-01  0.0000E+00 -1.1725E-04 -2.5332E-18 -3.5399E-16    3.2519E-02



 e l e m e n t   s t r e s s   c a l c u l a t i o n s   f o r   t i m e  s t e p      147   ( at time 2.50000E-03 )

 element  materl(local) 
 ipt-shl  stress       sig-xx      sig-yy      sig-zz      sig-xy      sig-yz      sig-zx       plastic
           state                                                                                 strain 
     314-      1
   1-  2 plastic   2.8945E+02 -3.5595E-01  0.0000E+00 -3.0439E-04 -1.7132E-16 -4.2199E-17    3.9452E-02
   2-  2 plastic   2.8945E+02 -3.5595E-01  0.0000E+00 -3.0439E-04 -1.7132E-16 -4.2199E-17    3.9452E-02



 e l e m e n t   s t r e s s   c a l c u l a t i o n s   f o r   t i m e  s t e p      151   ( at time 3.00000E-03 )

 element  materl(local) 
 ipt-shl  stress       sig-xx      sig-yy      sig-zz      sig-xy      sig-yz      sig-zx       plastic
           state                                                                                 strain 
     314-      1
   1-  2 plastic   2.9625E+02 -2.9545E-01  0.0000E+00 -4.6390E-04 -1.3786E-15 -8.9587E-16    4.6189E-02
   2-  2 plastic   2.9625E+02 -2.9545E-01  0.0000E+00 -4.6390E-04 -1.3786E-15 -8.9587E-16    4.6189E-02



 e l e m e n t   s t r e s s   c a l c u l a t i o n s   f o r   t i m e  s t e p      155   ( at time 3.50000E-03 )

 element  materl(local) 
 ipt-shl  stress       sig-xx      sig-yy      sig-zz      sig-xy      sig-yz      sig-zx       plastic
           state                                                                                 strain 
     314-      1
   1-  2 plastic   3.0301E+02 -2.5284E-01  0.0000E+00 -5.6466E-04  1.5749E-15 -4.2414E-15    5.2890E-02
   2-  2 plastic   3.0301E+02 -2.5284E-01  0.0000E+00 -5.6466E-04  1.5749E-15 -4.2414E-15    5.2890E-02



 e l e m e n t   s t r e s s   c a l c u l a t i o n s   f o r   t i m e  s t e p      159   ( at time 4.00000E-03 )

 element  materl(local) 
 ipt-shl  stress       sig-xx      sig-yy      sig-zz      sig-xy      sig-yz      sig-zx       plastic
           state                                                                                 strain 
     314-      1
   1-  2 plastic   3.0973E+02 -2.2308E-01  0.0000E+00 -5.8586E-04 -1.0041E-14  7.9000E-15    5.9565E-02
   2-  2 plastic   3.0973E+02 -2.2308E-01  0.0000E+00 -5.8586E-04 -1.0041E-14  7.9000E-15    5.9565E-02



 e l e m e n t   s t r e s s   c a l c u l a t i o n s   f o r   t i m e  s t e p      163   ( at time 4.50000E-03 )

 element  materl(local) 
 ipt-shl  stress       sig-xx      sig-yy      sig-zz      sig-xy      sig-yz      sig-zx       plastic
           state                                                                                 strain 
     314-      1
   1-  2 plastic   3.1642E+02 -2.0136E-01  0.0000E+00 -5.5660E-04 -2.1487E-14  1.7367E-15    6.6209E-02
   2-  2 plastic   3.1642E+02 -2.0136E-01  0.0000E+00 -5.5660E-04 -2.1487E-14  1.7367E-15    6.6209E-02



 e l e m e n t   s t r e s s   c a l c u l a t i o n s   f o r   t i m e  s t e p      167   ( at time 5.00000E-03 )

 element  materl(local) 
 ipt-shl  stress       sig-xx      sig-yy      sig-zz      sig-xy      sig-yz      sig-zx       plastic
           state                                                                                 strain 
     314-      1
   1-  2 plastic   3.2307E+02 -1.8449E-01  0.0000E+00 -5.0245E-04  4.7240E-15  6.6277E-15    7.2821E-02
   2-  2 plastic   3.2307E+02 -1.8449E-01  0.0000E+00 -5.0245E-04  4.7240E-15  6.6277E-15    7.2821E-02



 e l e m e n t   s t r e s s   c a l c u l a t i o n s   f o r   t i m e  s t e p      171   ( at time 5.50000E-03 )

 element  materl(local) 
 ipt-shl  stress       sig-xx      sig-yy      sig-zz      sig-xy      sig-yz      sig-zx       plastic
           state                                                                                 strain 
     314-      1
   1-  2 plastic   3.2968E+02 -1.7040E-01  0.0000E+00 -4.3932E-04 -2.0727E-15  7.1512E-15    7.9398E-02
   2-  2 plastic   3.2968E+02 -1.7040E-01  0.0000E+00 -4.3932E-04 -2.0727E-15  7.1512E-15    7.9398E-02



 e l e m e n t   s t r e s s   c a l c u l a t i o n s   f o r   t i m e  s t e p      175   ( at time 6.00000E-03 )

 element  materl(local) 
 ipt-shl  stress       sig-xx      sig-yy      sig-zz      sig-xy      sig-yz      sig-zx       plastic
           state                                                                                 strain 
     314-      1
   1-  2 plastic   3.3626E+02 -1.5785E-01  0.0000E+00 -3.7340E-04  5.0757E-15  1.1360E-15    8.5937E-02
   2-  2 plastic   3.3626E+02 -1.5785E-01  0.0000E+00 -3.7340E-04  5.0757E-15  1.1360E-15    8.5937E-02



 e l e m e n t   s t r e s s   c a l c u l a t i o n s   f o r   t i m e  s t e p      179   ( at time 6.50000E-03 )

 element  materl(local) 
 ipt-shl  stress       sig-xx      sig-yy      sig-zz      sig-xy      sig-yz      sig-zx       plastic
           state                                                                                 strain 
     314-      1
   1-  2 plastic   3.4280E+02 -1.4623E-01  0.0000E+00 -3.0564E-04  1.5818E-15 -1.9869E-15    9.2438E-02
   2-  2 plastic   3.4280E+02 -1.4623E-01  0.0000E+00 -3.0564E-04  1.5818E-15 -1.9869E-15    9.2438E-02



 e l e m e n t   s t r e s s   c a l c u l a t i o n s   f o r   t i m e  s t e p      183   ( at time 7.00000E-03 )

 element  materl(local) 
 ipt-shl  stress       sig-xx      sig-yy      sig-zz      sig-xy      sig-yz      sig-zx       plastic
           state                                                                                 strain 
     314-      1
   1-  2 plastic   3.4930E+02 -1.3505E-01  0.0000E+00 -2.3620E-04 -3.0335E-15  4.5777E-15    9.8900E-02
   2-  2 plastic   3.4930E+02 -1.3505E-01  0.0000E+00 -2.3620E-04 -3.0335E-15  4.5777E-15    9.8900E-02



 e l e m e n t   s t r e s s   c a l c u l a t i o n s   f o r   t i m e  s t e p      187   ( at time 7.50000E-03 )

 element  materl(local) 
 ipt-shl  stress       sig-xx      sig-yy      sig-zz      sig-xy      sig-yz      sig-zx       plastic
           state                                                                                 strain 
     314-      1
   1-  2 plastic   3.5576E+02 -1.2440E-01  0.0000E+00 -1.6663E-04 -3.7519E-16 -1.3951E-14    1.0532E-01
   2-  2 plastic   3.5576E+02 -1.2440E-01  0.0000E+00 -1.6663E-04 -3.7519E-16 -1.3951E-14    1.0532E-01



 e l e m e n t   s t r e s s   c a l c u l a t i o n s   f o r   t i m e  s t e p      191   ( at time 8.00000E-03 )

 element  materl(local) 
 ipt-shl  stress       sig-xx      sig-yy      sig-zz      sig-xy      sig-yz      sig-zx       plastic
           state                                                                                 strain 
     314-      1
   1-  2 plastic   3.6218E+02 -1.1386E-01  0.0000E+00 -9.9755E-05  3.2357E-15  4.9589E-15    1.1171E-01
   2-  2 plastic   3.6218E+02 -1.1386E-01  0.0000E+00 -9.9755E-05  3.2357E-15  4.9589E-15    1.1171E-01



 e l e m e n t   s t r e s s   c a l c u l a t i o n s   f o r   t i m e  s t e p      195   ( at time 8.50000E-03 )

 element  materl(local) 
 ipt-shl  stress       sig-xx      sig-yy      sig-zz      sig-xy      sig-yz      sig-zx       plastic
           state                                                                                 strain 
     314-      1
   1-  2 plastic   3.6856E+02 -1.0377E-01  0.0000E+00 -3.8661E-05 -1.1006E-14 -3.6063E-15    1.1806E-01
   2-  2 plastic   3.6856E+02 -1.0377E-01  0.0000E+00 -3.8661E-05 -1.1006E-14 -3.6063E-15    1.1806E-01



 e l e m e n t   s t r e s s   c a l c u l a t i o n s   f o r   t i m e  s t e p      199   ( at time 9.00000E-03 )

 element  materl(local) 
 ipt-shl  stress       sig-xx      sig-yy      sig-zz      sig-xy      sig-yz      sig-zx       plastic
           state                                                                                 strain 
     314-      1
   1-  2 plastic   3.7490E+02 -9.3761E-02  0.0000E+00  1.4445E-05  8.3753E-17 -1.0924E-14    1.2437E-01
   2-  2 plastic   3.7490E+02 -9.3761E-02  0.0000E+00  1.4445E-05  8.3753E-17 -1.0924E-14    1.2437E-01



 e l e m e n t   s t r e s s   c a l c u l a t i o n s   f o r   t i m e  s t e p      203   ( at time 9.50000E-03 )

 element  materl(local) 
 ipt-shl  stress       sig-xx      sig-yy      sig-zz      sig-xy      sig-yz      sig-zx       plastic
           state                                                                                 strain 
     314-      1
   1-  2 plastic   3.8121E+02 -8.4129E-02  0.0000E+00  5.8711E-05 -9.7268E-15 -6.3425E-15    1.3064E-01
   2-  2 plastic   3.8121E+02 -8.4129E-02  0.0000E+00  5.8711E-05 -9.7268E-15 -6.3425E-15    1.3064E-01



 e l e m e n t   s t r e s s   c a l c u l a t i o n s   f o r   t i m e  s t e p      207   ( at time 1.00000E-02 )

 element  materl(local) 
 ipt-shl  stress       sig-xx      sig-yy      sig-zz      sig-xy      sig-yz      sig-zx       plastic
           state                                                                                 strain 
     314-      1
   1-  2 plastic   3.8748E+02 -7.4736E-02  0.0000E+00  9.4596E-05  3.3097E-16 -1.0644E-14    1.3687E-01
   2-  2 plastic   3.8748E+02 -7.4736E-02  0.0000E+00  9.4596E-05  3.3097E-16 -1.0644E-14    1.3687E-01
