Curveplot
LS-DYNA keyword deck by LS-PrePost
Yield Value (eps)
Effective Stress (v-m)
Element id
1 #pts=1000
* Minval=     0.0000000000e+00 at time=         0.0000000000
* Maxval=     3.8753039551e+02 at time=         0.1368800104
    0.0000000000e+00    0.0000000000e+00
    0.0000000000e+00    3.0022783279e+00
    0.0000000000e+00    9.0939353943e+01
    0.0000000000e+00    9.1343734741e+01
    0.0000000000e+00    1.0155062103e+02
    0.0000000000e+00    1.6385444641e+02
    0.0000000000e+00    1.7312277222e+02
    0.0000000000e+00    2.0427107239e+02
    1.3966000552e-05    2.4951785278e+02
    1.3966000552e-05    2.4533462524e+02
    1.5285968402e-05    2.4811053467e+02
    6.7477827542e-05    2.5003945923e+02
    1.1945299048e-04    2.4953912354e+02
    1.5778222587e-04    2.5006164551e+02
    1.9686172891e-04    2.5019824219e+02
    2.3022256210e-04    2.5023579407e+02
    2.6936433278e-04    2.5026707458e+02
    3.1684950227e-04    2.5032257080e+02
    3.8939781371e-04    2.5038905334e+02
    5.1794480532e-04    2.5052064514e+02
    7.3169119423e-04    2.5073144531e+02
    1.0362709872e-03    2.5104196167e+02
    1.4139781706e-03    2.5141700745e+02
    1.9035140285e-03    2.5190910339e+02
    2.5978675112e-03    2.5260925293e+02
    3.5248235799e-03    2.5354640198e+02
    4.5297197066e-03    2.5455183411e+02
    5.3290375508e-03    2.5535214233e+02
    5.7275448926e-03    2.5575502014e+02
    5.8093704283e-03    2.5582865906e+02
    5.8149667457e-03    2.5580848694e+02
    5.8243889362e-03    2.5585475159e+02
    5.8345515281e-03    2.5574186707e+02
    5.8440435678e-03    2.5550395203e+02
    5.8559444733e-03    2.5588400269e+02
    5.8754887432e-03    2.5590213013e+02
    5.9124850668e-03    2.5594444275e+02
    5.9654386714e-03    2.5599858093e+02
    6.0298703611e-03    2.5606304932e+02
    6.1011514626e-03    2.5612893677e+02
    6.1731147580e-03    2.5620544434e+02
    6.2359669246e-03    2.5626492310e+02
    6.2880180776e-03    2.5631716919e+02
    6.3328286633e-03    2.5635922241e+02
    6.3746515661e-03    2.5640582275e+02
    6.4154723659e-03    2.5644244385e+02
    6.4563537017e-03    2.5648406982e+02
    6.5011554398e-03    2.5652838135e+02
    6.5583135001e-03    2.5659133911e+02
    6.6428827122e-03    2.5667153931e+02
    6.7693227902e-03    2.5680081177e+02
    6.9489981979e-03    2.5698120117e+02
    7.1930894628e-03    2.5723004150e+02
    7.5112134218e-03    2.5755111694e+02
    7.9084867612e-03    2.5794839478e+02
    8.3809085190e-03    2.5842059326e+02
    8.9145740494e-03    2.5895336914e+02
    9.4855772331e-03    2.5953396606e+02
    1.0059816763e-02    2.6010769653e+02
    1.0595402680e-02    2.6064422607e+02
    1.1057539843e-02    2.6110784912e+02
    1.1432196014e-02    2.6148263550e+02
    1.1723306030e-02    2.6178048706e+02
    1.1935003102e-02    2.6199383545e+02
    1.2067710049e-02    2.6212200928e+02
    1.2124570087e-02    2.6218441772e+02
    1.2128001079e-02    2.6210955811e+02
    1.2129001319e-02    2.6207308960e+02
    1.2129363604e-02    2.6213400269e+02
    1.2132885866e-02    2.6219262695e+02
    1.2149947695e-02    2.6220825195e+02
    1.2194085866e-02    2.6225241089e+02
    1.2257463299e-02    2.6231515503e+02
    1.2322857045e-02    2.6238256836e+02
    1.2381110340e-02    2.6243737793e+02
    1.2433012016e-02    2.6248898315e+02
    1.2486278079e-02    2.6254800415e+02
    1.2547892518e-02    2.6261221313e+02
    1.2623311952e-02    2.6268185425e+02
    1.2716433965e-02    2.6277291870e+02
    1.2836039998e-02    2.6289370728e+02
    1.2989457697e-02    2.6304971313e+02
    1.3182761148e-02    2.6324758911e+02
    1.3416960835e-02    2.6347869873e+02
    1.3691014610e-02    2.6375588989e+02
    1.4006310143e-02    2.6407455444e+02
    1.4365963638e-02    2.6443765259e+02
    1.4766026288e-02    2.6483767700e+02
    1.5193089843e-02    2.6526437378e+02
    1.5626806766e-02    2.6570184326e+02
    1.6048487276e-02    2.6612280273e+02
    1.6436222941e-02    2.6651135254e+02
    1.6769506037e-02    2.6684609985e+02
    1.7024256289e-02    2.6710321045e+02
    1.7189834267e-02    2.6727215576e+02
    1.7281712964e-02    2.6736447144e+02
    1.7338411883e-02    2.6742489624e+02
    1.7402848229e-02    2.6748492432e+02
    1.7503047362e-02    2.6758566284e+02
    1.7645964399e-02    2.6773425293e+02
    1.7818061635e-02    2.6789886475e+02
    1.7993278801e-02    2.6807815552e+02
    1.8144354224e-02    2.6823367310e+02
    1.8248375505e-02    2.6833602905e+02
    1.8295703456e-02    2.6838012695e+02
    1.8305212259e-02    2.6839236450e+02
    1.8307777122e-02    2.6839346313e+02
    1.8320057541e-02    2.6841088867e+02
    1.8354821950e-02    2.6843920898e+02
    1.8417449668e-02    2.6850509644e+02
    1.8500097096e-02    2.6858587646e+02
    1.8591007218e-02    2.6867837524e+02
    1.8679430708e-02    2.6876928711e+02
    1.8765343353e-02    2.6885797119e+02
    1.8853209913e-02    2.6894692993e+02
    1.8951535225e-02    2.6904400635e+02
    1.9063301384e-02    2.6915872192e+02
    1.9187906757e-02    2.6927572632e+02
    1.9314505160e-02    2.6940310669e+02
    1.9432416186e-02    2.6952807617e+02
    1.9535453990e-02    2.6962503052e+02
    1.9630633295e-02    2.6972186279e+02
    1.9735414535e-02    2.6983148193e+02
    1.9867543131e-02    2.6996459961e+02
    2.0041167736e-02    2.7014056396e+02
    2.0266432315e-02    2.7036499023e+02
    2.0547579974e-02    2.7064584351e+02
    2.0886700600e-02    2.7098742676e+02
    2.1271061152e-02    2.7137664795e+02
    2.1677486598e-02    2.7178387451e+02
    2.2076947615e-02    2.7217904663e+02
    2.2441685200e-02    2.7254873657e+02
    2.2757405415e-02    2.7286447144e+02
    2.3024927825e-02    2.7313836670e+02
    2.3255877197e-02    2.7336718750e+02
    2.3460634053e-02    2.7357650757e+02
    2.3640468717e-02    2.7375408936e+02
    2.3785101250e-02    2.7390127563e+02
    2.3887071759e-02    2.7400302124e+02
    2.3947035894e-02    2.7406030273e+02
    2.3978812620e-02    2.7409088135e+02
    2.4004060775e-02    2.7412136841e+02
    2.4044537917e-02    2.7415731812e+02
    2.4109305814e-02    2.7422805786e+02
    2.4196146056e-02    2.7431088257e+02
    2.4295089766e-02    2.7440991211e+02
    2.4395773187e-02    2.7451290894e+02
    2.4491509423e-02    2.7460723877e+02
    2.4577561766e-02    2.7469531250e+02
    2.4652967229e-02    2.7476690674e+02
    2.4720339105e-02    2.7484042358e+02
    2.4786606431e-02    2.7490872192e+02
    2.4859139696e-02    2.7497702026e+02
    2.4943940341e-02    2.7506439209e+02
    2.5045350194e-02    2.7516400146e+02
    2.5162171572e-02    2.7527847290e+02
    2.5290735066e-02    2.7541275024e+02
    2.5426635519e-02    2.7555227661e+02
    2.5564543903e-02    2.7568460083e+02
    2.5701139122e-02    2.7582495117e+02
    2.5835648179e-02    2.7596246338e+02
    2.5969911367e-02    2.7609857178e+02
    2.6110967621e-02    2.7623754883e+02
    2.6267305017e-02    2.7639547729e+02
    2.6448337361e-02    2.7657434082e+02
    2.6660883799e-02    2.7678961182e+02
    2.6905167848e-02    2.7703366089e+02
    2.7179701254e-02    2.7730776978e+02
    2.7480836958e-02    2.7760882568e+02
    2.7803564444e-02    2.7793640137e+02
    2.8140237555e-02    2.7827261353e+02
    2.8478220105e-02    2.7861389160e+02
    2.8802676126e-02    2.7894284058e+02
    2.9100511223e-02    2.7923724365e+02
    2.9358282685e-02    2.7949984741e+02
    2.9569635168e-02    2.7971319580e+02
    2.9734211043e-02    2.7987512207e+02
    2.9855523258e-02    2.7999658203e+02
    2.9941895977e-02    2.8008212280e+02
    3.0000777915e-02    2.8014114380e+02
    3.0042523518e-02    2.8018524170e+02
    3.0077451840e-02    2.8022229004e+02
    3.0114110559e-02    2.8025885010e+02
    3.0159035698e-02    2.8030151367e+02
    3.0213924125e-02    2.8035632324e+02
    3.0277982354e-02    2.8042163086e+02
    3.0346628278e-02    2.8049218750e+02
    3.0417874455e-02    2.8056265259e+02
    3.0490064994e-02    2.8063381958e+02
    3.0565291643e-02    2.8071395874e+02
    3.0644267797e-02    2.8079129028e+02
    3.0726518482e-02    2.8087490845e+02
    3.0811712146e-02    2.8096017456e+02
    3.0897913501e-02    2.8104382324e+02
    3.0986541882e-02    2.8113571167e+02
    3.1080458313e-02    2.8122772217e+02
    3.1183619052e-02    2.8133297729e+02
    3.1299032271e-02    2.8144619751e+02
    3.1428433955e-02    2.8158120728e+02
    3.1569585204e-02    2.8172250366e+02
    3.1719405204e-02    2.8186837769e+02
    3.1876668334e-02    2.8202902222e+02
    3.2039508224e-02    2.8218963623e+02
    3.2208815217e-02    2.8236239624e+02
    3.2382924110e-02    2.8253457642e+02
    3.2563157380e-02    2.8271707153e+02
    3.2754223794e-02    2.8291458130e+02
    3.2959073782e-02    2.8311724854e+02
    3.3180251718e-02    2.8333776855e+02
    3.3417064697e-02    2.8357757568e+02
    3.3664852381e-02    2.8382766724e+02
    3.3917702734e-02    2.8407986450e+02
    3.4168049693e-02    2.8433386230e+02
    3.4411400557e-02    2.8457159424e+02
    3.4641649574e-02    2.8480749512e+02
    3.4855913371e-02    2.8502206421e+02
    3.5053011030e-02    2.8522033691e+02
    3.5234589130e-02    2.8540335083e+02
    3.5406436771e-02    2.8557516479e+02
    3.5574868321e-02    2.8574310303e+02
    3.5737827420e-02    2.8590878296e+02
    3.5892300308e-02    2.8606393433e+02
    3.6031827331e-02    2.8620108032e+02
    3.6155566573e-02    2.8632888794e+02
    3.6262456328e-02    2.8643505859e+02
    3.6354042590e-02    2.8653189087e+02
    3.6427773535e-02    2.8660446167e+02
    3.6482274532e-02    2.8665600586e+02
    3.6520298570e-02    2.8669110107e+02
    3.6550916731e-02    2.8672625732e+02
    3.6587141454e-02    2.8676071167e+02
    3.6638595164e-02    2.8681362915e+02
    3.6709349602e-02    2.8688497925e+02
    3.6794841290e-02    2.8697204590e+02
    3.6888260394e-02    2.8706091309e+02
    3.6983646452e-02    2.8715856934e+02
    3.7077941000e-02    2.8725531006e+02
    3.7169840187e-02    2.8734909058e+02
    3.7260759622e-02    2.8744250488e+02
    3.7351336330e-02    2.8753088379e+02
    3.7444353104e-02    2.8761932373e+02
    3.7545256317e-02    2.8772308350e+02
    3.7657886744e-02    2.8784182739e+02
    3.7782680243e-02    2.8796450806e+02
    3.7916857749e-02    2.8809838867e+02
    3.8055881858e-02    2.8823712158e+02
    3.8202051073e-02    2.8838290405e+02
    3.8360096514e-02    2.8854418945e+02
    3.8536418229e-02    2.8872265625e+02
    3.8735155016e-02    2.8891870117e+02
    3.8951858878e-02    2.8913983154e+02
    3.9178304374e-02    2.8936242676e+02
    3.9406027645e-02    2.8959765625e+02
    3.9627943188e-02    2.8981924438e+02
    3.9843387902e-02    2.9003720093e+02
    4.0056545287e-02    2.9024661255e+02
    4.0270522237e-02    2.9046615601e+02
    4.0488462895e-02    2.9068386841e+02
    4.0709871799e-02    2.9090545654e+02
    4.0931012481e-02    2.9112506104e+02
    4.1144665331e-02    2.9133688354e+02
    4.1345406324e-02    2.9154446411e+02
    4.1529379785e-02    2.9172772217e+02
    4.1694756597e-02    2.9189190674e+02
    4.1841860861e-02    2.9203921509e+02
    4.1971895844e-02    2.9217019653e+02
    4.2086526752e-02    2.9228884888e+02
    4.2188547552e-02    2.9239328003e+02
    4.2278014123e-02    2.9248114014e+02
    4.2357541621e-02    2.9255999756e+02
    4.2427666485e-02    2.9262957764e+02
    4.2489089072e-02    2.9269052124e+02
    4.2540505528e-02    2.9274444580e+02
    4.2584400624e-02    2.9279067993e+02
    4.2624492198e-02    2.9282760620e+02
    4.2666226625e-02    2.9287130737e+02
    4.2714692652e-02    2.9291952515e+02
    4.2773157358e-02    2.9297857666e+02
    4.2841210961e-02    2.9305032349e+02
    4.2919717729e-02    2.9312704468e+02
    4.3004617095e-02    2.9321136475e+02
    4.3094743043e-02    2.9330532837e+02
    4.3188381940e-02    2.9339718628e+02
    4.3285232037e-02    2.9349038696e+02
    4.3385174125e-02    2.9359375000e+02
    4.3489068747e-02    2.9369348145e+02
    4.3597571552e-02    2.9380892944e+02
    4.3713148683e-02    2.9392694092e+02
    4.3836869299e-02    2.9404843140e+02
    4.3968815356e-02    2.9418280029e+02
    4.4110890478e-02    2.9432006836e+02
    4.4262204319e-02    2.9447390747e+02
    4.4424615800e-02    2.9463601685e+02
    4.4597342610e-02    2.9480844116e+02
    4.4783368707e-02    2.9499697876e+02
    4.4981855899e-02    2.9519882202e+02
    4.5192714781e-02    2.9540747070e+02
    4.5413527638e-02    2.9562930298e+02
    4.5640654862e-02    2.9586254883e+02
    4.5871023089e-02    2.9608923340e+02
    4.6101331711e-02    2.9632595825e+02
    4.6329330653e-02    2.9655358887e+02
    4.6553909779e-02    2.9677911377e+02
    4.6773426235e-02    2.9699942017e+02
    4.6987567097e-02    2.9721554565e+02
    4.7193843871e-02    2.9742126465e+02
    4.7390282154e-02    2.9761608887e+02
    4.7575138509e-02    2.9780212402e+02
    4.7746844590e-02    2.9797656250e+02
    4.7905493528e-02    2.9813601685e+02
    4.8049632460e-02    2.9828009033e+02
    4.8180352896e-02    2.9840951538e+02
    4.8298351467e-02    2.9852688599e+02
    4.8402424902e-02    2.9863385010e+02
    4.8493694514e-02    2.9872833252e+02
    4.8570554703e-02    2.9879977417e+02
    4.8634503037e-02    2.9886422729e+02
    4.8686061054e-02    2.9891592407e+02
    4.8727899790e-02    2.9896313477e+02
    4.8766709864e-02    2.9899935913e+02
    4.8806447536e-02    2.9904147339e+02
    4.8853226006e-02    2.9909005737e+02
    4.8911698163e-02    2.9914666748e+02
    4.8981945962e-02    2.9921652222e+02
    4.9064777792e-02    2.9929818726e+02
    4.9156226218e-02    2.9939514160e+02
    4.9254279584e-02    2.9948666382e+02
    4.9356862903e-02    2.9959436035e+02
    4.9462530762e-02    2.9969738770e+02
    4.9572158605e-02    2.9980697632e+02
    4.9687374383e-02    2.9992172241e+02
    4.9810383469e-02    3.0004867554e+02
    4.9940731376e-02    3.0017950439e+02
    5.0080236048e-02    3.0031826782e+02
    5.0228100270e-02    3.0047036743e+02
    5.0382759422e-02    3.0062164307e+02
    5.0544414669e-02    3.0078759766e+02
    5.0712145865e-02    3.0095690918e+02
    5.0885614008e-02    3.0113336182e+02
    5.1065120846e-02    3.0131118774e+02
    5.1251854748e-02    3.0149496460e+02
    5.1447499543e-02    3.0168954468e+02
    5.1653604954e-02    3.0190164185e+02
    5.1869437099e-02    3.0211349487e+02
    5.2091892809e-02    3.0234072876e+02
    5.2318077534e-02    3.0257122803e+02
    5.2544500679e-02    3.0279800415e+02
    5.2765794098e-02    3.0301824951e+02
    5.2979908884e-02    3.0323034668e+02
    5.3183451295e-02    3.0343441772e+02
    5.3375780582e-02    3.0362759399e+02
    5.3556486964e-02    3.0381106567e+02
    5.3725600243e-02    3.0398013306e+02
    5.3882550448e-02    3.0414245605e+02
    5.4026640952e-02    3.0428515625e+02
    5.4155960679e-02    3.0441854858e+02
    5.4271765053e-02    3.0453063965e+02
    5.4371848702e-02    3.0462997437e+02
    5.4458528757e-02    3.0472137451e+02
    5.4532725364e-02    3.0479370117e+02
    5.4594822228e-02    3.0485501099e+02
    5.4647039622e-02    3.0491253662e+02
    5.4691471159e-02    3.0495355225e+02
    5.4732013494e-02    3.0499072266e+02
    5.4773081094e-02    3.0503756714e+02
    5.4819270968e-02    3.0508505249e+02
    5.4873600602e-02    3.0513433838e+02
    5.4934177548e-02    3.0519439697e+02
    5.5002912879e-02    3.0526632690e+02
    5.5076006800e-02    3.0533627319e+02
    5.5154778063e-02    3.0541635132e+02
    5.5237837136e-02    3.0550271606e+02
    5.5327732116e-02    3.0559304810e+02
    5.5424876511e-02    3.0568945312e+02
    5.5531248450e-02    3.0579794312e+02
    5.5645085871e-02    3.0590866089e+02
    5.5768974125e-02    3.0603762817e+02
    5.5899888277e-02    3.0616662598e+02
    5.6037697941e-02    3.0630630493e+02
    5.6183401495e-02    3.0645428467e+02
    5.6334976107e-02    3.0660665894e+02
    5.6494835764e-02    3.0676535034e+02
    5.6661780924e-02    3.0693038940e+02
    5.6835874915e-02    3.0711138916e+02
    5.7017281651e-02    3.0729119873e+02
    5.7204622775e-02    3.0748114014e+02
    5.7399127632e-02    3.0767251587e+02
    5.7598713785e-02    3.0787405396e+02
    5.7804003358e-02    3.0807943726e+02
    5.8013815433e-02    3.0829135132e+02
    5.8229301125e-02    3.0850311279e+02
    5.8448050171e-02    3.0872491455e+02
    5.8668363839e-02    3.0894833374e+02
    5.8887124062e-02    3.0917410278e+02
    5.9102632105e-02    3.0938616943e+02
    5.9312310070e-02    3.0959954834e+02
    5.9512317181e-02    3.0979541016e+02
    5.9700492769e-02    3.0998797607e+02
    5.9875681996e-02    3.1016030884e+02
    6.0036454350e-02    3.1032324219e+02
    6.0181438923e-02    3.1046597290e+02
    6.0310222208e-02    3.1059442139e+02
    6.0423273593e-02    3.1071395874e+02
    6.0521937907e-02    3.1081475830e+02
    6.0607500374e-02    3.1089437866e+02
    6.0681682080e-02    3.1097613525e+02
    6.0745824128e-02    3.1103808594e+02
    6.0800693929e-02    3.1109429932e+02
    6.0849346220e-02    3.1113973999e+02
    6.0895442963e-02    3.1118264771e+02
    6.0943268239e-02    3.1123870850e+02
    6.0997810215e-02    3.1128579712e+02
    6.1060406268e-02    3.1135498047e+02
    6.1131294817e-02    3.1142449951e+02
    6.1209727079e-02    3.1150115967e+02
    6.1294380575e-02    3.1158450317e+02
    6.1383288354e-02    3.1167605591e+02
    6.1477974057e-02    3.1177508545e+02
    6.1578527093e-02    3.1187213135e+02
    6.1686117202e-02    3.1198345947e+02
    6.1802737415e-02    3.1209518433e+02
    6.1927381903e-02    3.1222094727e+02
    6.2061887234e-02    3.1236135864e+02
    6.2202744186e-02    3.1250357056e+02
    6.2351346016e-02    3.1265328979e+02
    6.2505237758e-02    3.1280371094e+02
    6.2664970756e-02    3.1296481323e+02
    6.2830023468e-02    3.1313339233e+02
    6.3001647592e-02    3.1330081177e+02
    6.3178583980e-02    3.1348193359e+02
    6.3361525536e-02    3.1366183472e+02
    6.3550338149e-02    3.1385165405e+02
    6.3744276762e-02    3.1405099487e+02
    6.3943229616e-02    3.1425329590e+02
    6.4145006239e-02    3.1445370483e+02
    6.4349062741e-02    3.1465460205e+02
    6.4553380013e-02    3.1486639404e+02
    6.4758300781e-02    3.1506701660e+02
    6.4961612225e-02    3.1527566528e+02
    6.5160825849e-02    3.1546905518e+02
    6.5357036889e-02    3.1567034912e+02
    6.5545476973e-02    3.1586016846e+02
    6.5727025270e-02    3.1604168701e+02
    6.5897569060e-02    3.1621252441e+02
    6.6056199372e-02    3.1637390137e+02
    6.6200956702e-02    3.1651907349e+02
    6.6329851747e-02    3.1664956665e+02
    6.6442355514e-02    3.1676419067e+02
    6.6538751125e-02    3.1685501099e+02
    6.6618323326e-02    3.1693405151e+02
    6.6682785749e-02    3.1700177002e+02
    6.6734194756e-02    3.1705017090e+02
    6.6775470972e-02    3.1709851074e+02
    6.6814392805e-02    3.1713439941e+02
    6.6856108606e-02    3.1717144775e+02
    6.6905669868e-02    3.1722152710e+02
    6.6966086626e-02    3.1728961182e+02
    6.7035585642e-02    3.1735665894e+02
    6.7110225558e-02    3.1743276978e+02
    6.7188099027e-02    3.1750662231e+02
    6.7266881466e-02    3.1758520508e+02
    6.7345723510e-02    3.1767153931e+02
    6.7426510155e-02    3.1775372314e+02
    6.7511215806e-02    3.1783282471e+02
    6.7603707314e-02    3.1793020630e+02
    6.7704141140e-02    3.1802899170e+02
    6.7813538015e-02    3.1813720703e+02
    6.7933000624e-02    3.1825979614e+02
    6.8061567843e-02    3.1838998413e+02
    6.8199947476e-02    3.1852990723e+02
    6.8347476423e-02    3.1867770386e+02
    6.8502806127e-02    3.1882760620e+02
    6.8668045104e-02    3.1899884033e+02
    6.8840831518e-02    3.1917086792e+02
    6.9021232426e-02    3.1934893799e+02
    6.9207608700e-02    3.1954269409e+02
    6.9398783147e-02    3.1973327637e+02
    6.9594122469e-02    3.1993057251e+02
    6.9791495800e-02    3.2012161255e+02
    6.9989852607e-02    3.2032833862e+02
    7.0189043880e-02    3.2052850342e+02
    7.0389442146e-02    3.2072448730e+02
    7.0590615273e-02    3.2092346191e+02
    7.0792801678e-02    3.2113278198e+02
    7.0993989706e-02    3.2133489990e+02
    7.1193225682e-02    3.2152944946e+02
    7.1390442550e-02    3.2173007202e+02
    7.1581684053e-02    3.2191949463e+02
    7.1765832603e-02    3.2211071777e+02
    7.1942523122e-02    3.2228530884e+02
    7.2108641267e-02    3.2245413208e+02
    7.2262853384e-02    3.2260589600e+02
    7.2404175997e-02    3.2274697876e+02
    7.2530545294e-02    3.2287493896e+02
    7.2640776634e-02    3.2298794556e+02
    7.2734251618e-02    3.2308566284e+02
    7.2811782360e-02    3.2316271973e+02
    7.2874836624e-02    3.2322232056e+02
    7.2924442589e-02    3.2327297974e+02
    7.2967164218e-02    3.2331915283e+02
    7.3008917272e-02    3.2336160278e+02
    7.3056921363e-02    3.2341091919e+02
    7.3114737868e-02    3.2346191406e+02
    7.3184303939e-02    3.2353094482e+02
    7.3262944818e-02    3.2361315918e+02
    7.3348484933e-02    3.2369619751e+02
    7.3436878622e-02    3.2378576660e+02
    7.3527261615e-02    3.2387570190e+02
    7.3620073497e-02    3.2397729492e+02
    7.3716484010e-02    3.2406457520e+02
    7.3818825185e-02    3.2417196655e+02
    7.3928050697e-02    3.2428515625e+02
    7.4045404792e-02    3.2440393066e+02
    7.4170529842e-02    3.2452273560e+02
    7.4304223061e-02    3.2465600586e+02
    7.4444279075e-02    3.2479537964e+02
    7.4591390789e-02    3.2494406128e+02
    7.4746333063e-02    3.2510577393e+02
    7.4908271432e-02    3.2526788330e+02
    7.5077079237e-02    3.2543655396e+02
    7.5253471732e-02    3.2561804199e+02
    7.5436159968e-02    3.2579953003e+02
    7.5624741614e-02    3.2599029541e+02
    7.5817145407e-02    3.2618334961e+02
    7.6012574136e-02    3.2637249756e+02
    7.6207891107e-02    3.2657656860e+02
    7.6403252780e-02    3.2676586914e+02
    7.6595447958e-02    3.2696243286e+02
    7.6786614954e-02    3.2715628052e+02
    7.6974898577e-02    3.2734503174e+02
    7.7162146568e-02    3.2753295898e+02
    7.7348135412e-02    3.2771798706e+02
    7.7530160546e-02    3.2789651489e+02
    7.7707834542e-02    3.2807928467e+02
    7.7877819538e-02    3.2825003052e+02
    7.8038856387e-02    3.2840933228e+02
    7.8189648688e-02    3.2855874634e+02
    7.8326791525e-02    3.2869879150e+02
    7.8451171517e-02    3.2882272339e+02
    7.8562401235e-02    3.2894033813e+02
    7.8659065068e-02    3.2903942871e+02
    7.8742526472e-02    3.2911810303e+02
    7.8810781240e-02    3.2918679810e+02
    7.8866660595e-02    3.2924380493e+02
    7.8914977610e-02    3.2929290771e+02
    7.8961789608e-02    3.2934118652e+02
    7.9012535512e-02    3.2938735962e+02
    7.9069852829e-02    3.2944641113e+02
    7.9135537148e-02    3.2951696777e+02
    7.9205848277e-02    3.2958700562e+02
    7.9280145466e-02    3.2965969849e+02
    7.9355202615e-02    3.2973437500e+02
    7.9430483282e-02    3.2981204224e+02
    7.9508781433e-02    3.2989126587e+02
    7.9590290785e-02    3.2997091675e+02
    7.9679183662e-02    3.3005972290e+02
    7.9775638878e-02    3.3015838623e+02
    7.9881973565e-02    3.3026129150e+02
    7.9997032881e-02    3.3037744141e+02
    8.0119304359e-02    3.3050131226e+02
    8.0248102546e-02    3.3063418579e+02
    8.0382525921e-02    3.3076733398e+02
    8.0523215234e-02    3.3090478516e+02
    8.0669909716e-02    3.3105722046e+02
    8.0824680626e-02    3.3121392822e+02
    8.0988556147e-02    3.3137887573e+02
    8.1162020564e-02    3.3154931641e+02
    8.1343390048e-02    3.3173016357e+02
    8.1533521414e-02    3.3192730713e+02
    8.1730380654e-02    3.3212255859e+02
    8.1930957735e-02    3.3232040405e+02
    8.2133591175e-02    3.3252441406e+02
    8.2335956395e-02    3.3273397827e+02
    8.2537412643e-02    3.3293356323e+02
    8.2736641169e-02    3.3313381958e+02
    8.2933686674e-02    3.3332714844e+02
    8.3127774298e-02    3.3352734375e+02
    8.3316795528e-02    3.3371374512e+02
    8.3500497043e-02    3.3389886475e+02
    8.3678238094e-02    3.3407498169e+02
    8.3847694099e-02    3.3424591064e+02
    8.4009729326e-02    3.3441436768e+02
    8.4164902568e-02    3.3456668091e+02
    8.4312736988e-02    3.3471691895e+02
    8.4451831877e-02    3.3485360718e+02
    8.4582284093e-02    3.3498483276e+02
    8.4701128304e-02    3.3510330200e+02
    8.4807179868e-02    3.3521481323e+02
    8.4899745882e-02    3.3530453491e+02
    8.4977157414e-02    3.3538650513e+02
    8.5041642189e-02    3.3544689941e+02
    8.5095509887e-02    3.3550720215e+02
    8.5145592690e-02    3.3555316162e+02
    8.5197709501e-02    3.3560815430e+02
    8.5256703198e-02    3.3566110229e+02
    8.5325367749e-02    3.3573083496e+02
    8.5402838886e-02    3.3581289673e+02
    8.5485011339e-02    3.3589361572e+02
    8.5569702089e-02    3.3598199463e+02
    8.5654750466e-02    3.3606326294e+02
    8.5741795599e-02    3.3615319824e+02
    8.5833013058e-02    3.3624465942e+02
    8.5929870605e-02    3.3634490967e+02
    8.6036063731e-02    3.3644613647e+02
    8.6151994765e-02    3.3656570435e+02
    8.6276143789e-02    3.3668975830e+02
    8.6407952011e-02    3.3682067871e+02
    8.6545437574e-02    3.3695892334e+02
    8.6688421667e-02    3.3710449219e+02
    8.6836107075e-02    3.3725164795e+02
    8.6988970637e-02    3.3740838623e+02
    8.7147280574e-02    3.3756378174e+02
    8.7312139571e-02    3.3772753906e+02
    8.7482802570e-02    3.3790536499e+02
    8.7660238147e-02    3.3807766724e+02
    8.7844230235e-02    3.3826055908e+02
    8.8032521307e-02    3.3845260620e+02
    8.8224299252e-02    3.3864620972e+02
    8.8418796659e-02    3.3884033203e+02
    8.8613346219e-02    3.3904010010e+02
    8.8805601001e-02    3.3923385620e+02
    8.8996484876e-02    3.3942086792e+02
    8.9183464646e-02    3.3961248779e+02
    8.9366197586e-02    3.3979379272e+02
    8.9543588459e-02    3.3996960449e+02
    8.9714802802e-02    3.4014630127e+02
    8.9878417552e-02    3.4031097412e+02
    9.0033374727e-02    3.4046334839e+02
    9.0180151165e-02    3.4061270142e+02
    9.0316891670e-02    3.4075006104e+02
    9.0444929898e-02    3.4087777710e+02
    9.0563297272e-02    3.4099737549e+02
    9.0672254562e-02    3.4110766602e+02
    9.0770401061e-02    3.4120791626e+02
    9.0857088566e-02    3.4129202271e+02
    9.0931884944e-02    3.4136822510e+02
    9.0995155275e-02    3.4143255615e+02
    9.1050617397e-02    3.4148837280e+02
    9.1102935374e-02    3.4153558350e+02
    9.1157160699e-02    3.4158877563e+02
    9.1218568385e-02    3.4165451050e+02
    9.1287620366e-02    3.4172549438e+02
    9.1364607215e-02    3.4180545044e+02
    9.1444358230e-02    3.4187768555e+02
    9.1524764895e-02    3.4195858765e+02
    9.1605186462e-02    3.4204559326e+02
    9.1684609652e-02    3.4212411499e+02
    9.1766253114e-02    3.4220401001e+02
    9.1851897538e-02    3.4228924561e+02
    9.1944620013e-02    3.4238284302e+02
    9.2046067119e-02    3.4248840332e+02
    9.2156201601e-02    3.4259655762e+02
    9.2274159193e-02    3.4271298218e+02
    9.2400029302e-02    3.4283874512e+02
    9.2532217503e-02    3.4297467041e+02
    9.2671766877e-02    3.4311621094e+02
    9.2818647623e-02    3.4326040649e+02
    9.2972591519e-02    3.4341638184e+02
    9.3135721982e-02    3.4357885742e+02
    9.3306034803e-02    3.4375457764e+02
    9.3484453857e-02    3.4392935181e+02
    9.3668587506e-02    3.4411785889e+02
    9.3858085573e-02    3.4431021118e+02
    9.4049982727e-02    3.4449743652e+02
    9.4243630767e-02    3.4469827271e+02
    9.4438351691e-02    3.4489202881e+02
    9.4633273780e-02    3.4508792114e+02
    9.4829499722e-02    3.4527932739e+02
    9.5025084913e-02    3.4548358154e+02
    9.5219664276e-02    3.4567465210e+02
    9.5411419868e-02    3.4586596680e+02
    9.5598369837e-02    3.4605450439e+02
    9.5777690411e-02    3.4623590088e+02
    9.5948718488e-02    3.4641171265e+02
    9.6109487116e-02    3.4656738281e+02
    9.6260823309e-02    3.4671997070e+02
    9.6403114498e-02    3.4686007690e+02
    9.6535652876e-02    3.4699905396e+02
    9.6659883857e-02    3.4712466431e+02
    9.6774369478e-02    3.4723553467e+02
    9.6879020333e-02    3.4734179688e+02
    9.6973478794e-02    3.4743777466e+02
    9.7058095038e-02    3.4752328491e+02
    9.7133509815e-02    3.4759713745e+02
    9.7199916840e-02    3.4766632080e+02
    9.7260542214e-02    3.4772180176e+02
    9.7319133580e-02    3.4778817749e+02
    9.7379460931e-02    3.4784573364e+02
    9.7445763648e-02    3.4791528320e+02
    9.7519479692e-02    3.4798553467e+02
    9.7600787878e-02    3.4807019043e+02
    9.7686678171e-02    3.4815078735e+02
    9.7775675356e-02    3.4824548340e+02
    9.7866147757e-02    3.4833648682e+02
    9.7957998514e-02    3.4842501831e+02
    9.8052419722e-02    3.4852178955e+02
    9.8151691258e-02    3.4862573242e+02
    9.8257333040e-02    3.4872854614e+02
    9.8370976746e-02    3.4883752441e+02
    9.8491668701e-02    3.4896206665e+02
    9.8619379103e-02    3.4909347534e+02
    9.8754070699e-02    3.4922354126e+02
    9.8894603550e-02    3.4936676025e+02
    9.9042288959e-02    3.4951528931e+02
    9.9196791649e-02    3.4967095947e+02
    9.9357292056e-02    3.4983306885e+02
    9.9524810910e-02    3.5000256348e+02
    9.9697560072e-02    3.5017379761e+02
    9.9876217544e-02    3.5035556030e+02
    1.0006093234e-01    3.5053573608e+02
    1.0024067014e-01    3.5072030640e+02
    1.0042487830e-01    3.5090643311e+02
    1.0061003268e-01    3.5109548950e+02
    1.0079966486e-01    3.5127835083e+02
    1.0097930580e-01    3.5146704102e+02
    1.0116107017e-01    3.5164526367e+02
    1.0134316236e-01    3.5182934570e+02
    1.0152280331e-01    3.5201022339e+02
    1.0169757158e-01    3.5218737793e+02
    1.0186716169e-01    3.5235635376e+02
    1.0202676058e-01    3.5251770020e+02
    1.0218174756e-01    3.5267300415e+02
    1.0232295841e-01    3.5281240845e+02
    1.0245948285e-01    3.5295394897e+02
    1.0258912295e-01    3.5307122803e+02
    1.0269870609e-01    3.5319055176e+02
    1.0280357301e-01    3.5329617310e+02
    1.0289853066e-01    3.5339117432e+02
    1.0298447311e-01    3.5347521973e+02
    1.0305506736e-01    3.5355029297e+02
    1.0312485695e-01    3.5361526489e+02
    1.0317974538e-01    3.5367214966e+02
    1.0323437303e-01    3.5372988892e+02
    1.0329417139e-01    3.5378823853e+02
    1.0336068273e-01    3.5385412598e+02
    1.0343036056e-01    3.5392489624e+02
    1.0351003706e-01    3.5400537109e+02
    1.0358967632e-01    3.5408459473e+02
    1.0366936028e-01    3.5416412354e+02
    1.0375111550e-01    3.5424893188e+02
    1.0384079069e-01    3.5433410645e+02
    1.0392039269e-01    3.5441946411e+02
    1.0401503742e-01    3.5450875854e+02
    1.0410459340e-01    3.5460787964e+02
    1.0420667380e-01    3.5470803833e+02
    1.0431618243e-01    3.5481362915e+02
    1.0443081707e-01    3.5493371582e+02
    1.0455022007e-01    3.5505294800e+02
    1.0467816889e-01    3.5517477417e+02
    1.0480748117e-01    3.5531054688e+02
    1.0495195538e-01    3.5545361328e+02
    1.0510107130e-01    3.5560217285e+02
    1.0525441170e-01    3.5576364136e+02
    1.0542345792e-01    3.5593103027e+02
    1.0559780896e-01    3.5610406494e+02
    1.0577673465e-01    3.5628350830e+02
    1.0596039146e-01    3.5646820068e+02
    1.0614923388e-01    3.5666049194e+02
    1.0633806139e-01    3.5684988403e+02
    1.0652954876e-01    3.5704092407e+02
    1.0672609508e-01    3.5723123169e+02
    1.0691478103e-01    3.5743130493e+02
    1.0710805655e-01    3.5762081909e+02
    1.0729736090e-01    3.5780880737e+02
    1.0748019069e-01    3.5799893188e+02
    1.0766893625e-01    3.5817770386e+02
    1.0784233361e-01    3.5835693359e+02
    1.0801107436e-01    3.5852886963e+02
    1.0817413032e-01    3.5869223022e+02
    1.0832705349e-01    3.5884713745e+02
    1.0847578943e-01    3.5899420166e+02
    1.0861339420e-01    3.5912872314e+02
    1.0874552280e-01    3.5926284790e+02
    1.0886444151e-01    3.5938549805e+02
    1.0897349566e-01    3.5949530029e+02
    1.0906969011e-01    3.5959188843e+02
    1.0915879905e-01    3.5968356323e+02
    1.0923358798e-01    3.5976177979e+02
    1.0930375010e-01    3.5982687378e+02
    1.0936728120e-01    3.5989028931e+02
    1.0942835361e-01    3.5995315552e+02
    1.0948778689e-01    3.6001123047e+02
    1.0955295712e-01    3.6007986450e+02
    1.0962438583e-01    3.6015295410e+02
    1.0970367491e-01    3.6023028564e+02
    1.0979416966e-01    3.6031909180e+02
    1.0988031328e-01    3.6040112305e+02
    1.0996938497e-01    3.6049554443e+02
    1.1006107181e-01    3.6058755493e+02
    1.1015406251e-01    3.6068588257e+02
    1.1025072634e-01    3.6077880859e+02
    1.1035691947e-01    3.6088333130e+02
    1.1046572775e-01    3.6099847412e+02
    1.1058767140e-01    3.6110803223e+02
    1.1070644110e-01    3.6123458862e+02
    1.1082716286e-01    3.6136160278e+02
    1.1096325517e-01    3.6149484253e+02
    1.1109782755e-01    3.6162863159e+02
    1.1124037206e-01    3.6176901245e+02
    1.1138863862e-01    3.6192037964e+02
    1.1155100912e-01    3.6207955933e+02
    1.1170926690e-01    3.6224270630e+02
    1.1187826097e-01    3.6241543579e+02
    1.1205619574e-01    3.6258886719e+02
    1.1223722249e-01    3.6276809692e+02
    1.1241684109e-01    3.6295156860e+02
    1.1259785295e-01    3.6313973999e+02
    1.1278381199e-01    3.6332254028e+02
    1.1296839267e-01    3.6351025391e+02
    1.1314794421e-01    3.6368914795e+02
    1.1332895607e-01    3.6386773682e+02
    1.1350182444e-01    3.6404479980e+02
    1.1367262155e-01    3.6422177124e+02
    1.1384213716e-01    3.6438574219e+02
    1.1400290579e-01    3.6454953003e+02
    1.1415575445e-01    3.6470468140e+02
    1.1430643499e-01    3.6485482788e+02
    1.1444575340e-01    3.6499670410e+02
    1.1457979679e-01    3.6513058472e+02
    1.1470932513e-01    3.6525515747e+02
    1.1482086033e-01    3.6537124634e+02
    1.1492932588e-01    3.6548010254e+02
    1.1502404511e-01    3.6557308960e+02
    1.1510616541e-01    3.6565786743e+02
    1.1518723518e-01    3.6573645020e+02
    1.1524960399e-01    3.6580377197e+02
    1.1531037092e-01    3.6586242676e+02
    1.1537066102e-01    3.6591943359e+02
    1.1543036997e-01    3.6598803711e+02
    1.1550063640e-01    3.6605160522e+02
    1.1557707936e-01    3.6612548828e+02
    1.1564804614e-01    3.6620223999e+02
    1.1572694033e-01    3.6628012085e+02
    1.1580796540e-01    3.6636154175e+02
    1.1589355022e-01    3.6644409180e+02
    1.1597780138e-01    3.6653274536e+02
    1.1605819315e-01    3.6661785889e+02
    1.1615455896e-01    3.6670819092e+02
    1.1624794453e-01    3.6680621338e+02
    1.1635425687e-01    3.6691143799e+02
    1.1646252871e-01    3.6701568604e+02
    1.1657303572e-01    3.6712963867e+02
    1.1669216305e-01    3.6725473022e+02
    1.1681266129e-01    3.6737594604e+02
    1.1694863439e-01    3.6750219727e+02
    1.1708028615e-01    3.6764062500e+02
    1.1722078174e-01    3.6778854370e+02
    1.1737672985e-01    3.6793661499e+02
    1.1753576249e-01    3.6809429932e+02
    1.1770292372e-01    3.6826232910e+02
    1.1787487566e-01    3.6843218994e+02
    1.1804551631e-01    3.6861077881e+02
    1.1822380126e-01    3.6879611206e+02
    1.1841304600e-01    3.6897781372e+02
    1.1859624833e-01    3.6916250610e+02
    1.1878462136e-01    3.6935827637e+02
    1.1897645891e-01    3.6954354858e+02
    1.1916699260e-01    3.6973818970e+02
    1.1936244369e-01    3.6992666626e+02
    1.1954680830e-01    3.7011694336e+02
    1.1972735822e-01    3.7029840088e+02
    1.1990541965e-01    3.7047326660e+02
    1.2006968260e-01    3.7064733887e+02
    1.2023002654e-01    3.7080368042e+02
    1.2038826197e-01    3.7096563721e+02
    1.2053220719e-01    3.7110711670e+02
    1.2067334354e-01    3.7125195312e+02
    1.2080600858e-01    3.7138162231e+02
    1.2092454731e-01    3.7151083374e+02
    1.2104548514e-01    3.7162396240e+02
    1.2114812434e-01    3.7172354126e+02
    1.2124118209e-01    3.7182571411e+02
    1.2133016437e-01    3.7190948486e+02
    1.2140079588e-01    3.7198507690e+02
    1.2147320062e-01    3.7205407715e+02
    1.2153244019e-01    3.7211541748e+02
    1.2159290910e-01    3.7217620850e+02
    1.2166117877e-01    3.7224011230e+02
    1.2173134089e-01    3.7231481934e+02
    1.2181030214e-01    3.7239175415e+02
    1.2189085782e-01    3.7247045898e+02
    1.2197935581e-01    3.7256292725e+02
    1.2206161022e-01    3.7264370728e+02
    1.2215054780e-01    3.7273504639e+02
    1.2224108726e-01    3.7283285522e+02
    1.2233954668e-01    3.7292486572e+02
    1.2243969738e-01    3.7302600098e+02
    1.2254851311e-01    3.7313040161e+02
    1.2265674025e-01    3.7324362183e+02
    1.2277756631e-01    3.7336251831e+02
    1.2289828807e-01    3.7348553467e+02
    1.2302847207e-01    3.7361968994e+02
    1.2315924466e-01    3.7375100708e+02
    1.2329524755e-01    3.7388195801e+02
    1.2343606353e-01    3.7402264404e+02
    1.2357687950e-01    3.7416961670e+02
    1.2372702360e-01    3.7431787109e+02
    1.2388614565e-01    3.7447625732e+02
    1.2404358387e-01    3.7463894653e+02
    1.2421437353e-01    3.7480801392e+02
    1.2439346313e-01    3.7498541260e+02
    1.2456531823e-01    3.7516607666e+02
    1.2474442273e-01    3.7534115601e+02
    1.2492536008e-01    3.7552163696e+02
    1.2510225177e-01    3.7570809937e+02
    1.2528313696e-01    3.7588510132e+02
    1.2546397746e-01    3.7606170654e+02
    1.2563471496e-01    3.7623464966e+02
    1.2580646574e-01    3.7640615845e+02
    1.2596714497e-01    3.7657211304e+02
    1.2612931430e-01    3.7673327637e+02
    1.2627990544e-01    3.7688400269e+02
    1.2642727792e-01    3.7703582764e+02
    1.2656769156e-01    3.7717526245e+02
    1.2669822574e-01    3.7730783081e+02
    1.2682040036e-01    3.7742901611e+02
    1.2693229318e-01    3.7754165649e+02
    1.2704226375e-01    3.7764242554e+02
    1.2713412941e-01    3.7773883057e+02
    1.2722438574e-01    3.7782559204e+02
    1.2729604542e-01    3.7790823364e+02
    1.2736621499e-01    3.7797766113e+02
    1.2743501365e-01    3.7804043579e+02
    1.2750364840e-01    3.7811340332e+02
    1.2756541371e-01    3.7817816162e+02
    1.2763559818e-01    3.7824649048e+02
    1.2771436572e-01    3.7832577515e+02
    1.2779460847e-01    3.7840655518e+02
    1.2787483633e-01    3.7848663330e+02
    1.2795481086e-01    3.7856051636e+02
    1.2802627683e-01    3.7864196777e+02
    1.2811528146e-01    3.7872128296e+02
    1.2819543481e-01    3.7881079102e+02
    1.2828460336e-01    3.7890023804e+02
    1.2837585807e-01    3.7898867798e+02
    1.2847502530e-01    3.7909365845e+02
    1.2858523428e-01    3.7919897461e+02
    1.2869304419e-01    3.7930776978e+02
    1.2881188095e-01    3.7942547607e+02
    1.2893211842e-01    3.7954519653e+02
    1.2906105816e-01    3.7967410278e+02
    1.2919123471e-01    3.7981262207e+02
    1.2933148444e-01    3.7994946289e+02
    1.2948042154e-01    3.8010073853e+02
    1.2963058054e-01    3.8025360107e+02
    1.2979073822e-01    3.8041174316e+02
    1.2995976210e-01    3.8058020020e+02
    1.3012105227e-01    3.8074206543e+02
    1.3029007614e-01    3.8092062378e+02
    1.3047011197e-01    3.8109512329e+02
    1.3064917922e-01    3.8126818848e+02
    1.3082918525e-01    3.8145269775e+02
    1.3101026416e-01    3.8164123535e+02
    1.3120028377e-01    3.8182592773e+02
    1.3138936460e-01    3.8201467896e+02
    1.3157469034e-01    3.8219869995e+02
    1.3175469637e-01    3.8238330078e+02
    1.3193468750e-01    3.8256478882e+02
    1.3210511208e-01    3.8273724365e+02
    1.3226497173e-01    3.8290222168e+02
    1.3242544234e-01    3.8305697632e+02
    1.3257528841e-01    3.8321075439e+02
    1.3272514939e-01    3.8336120605e+02
    1.3286526501e-01    3.8349771118e+02
    1.3299500942e-01    3.8362561035e+02
    1.3311558962e-01    3.8375122070e+02
    1.3322535157e-01    3.8385723877e+02
    1.3332594931e-01    3.8395895386e+02
    1.3340871036e-01    3.8404724121e+02
    1.3348855078e-01    3.8412780762e+02
    1.3356845081e-01    3.8419812012e+02
    1.3362872601e-01    3.8427349854e+02
    1.3369858265e-01    3.8434078979e+02
    1.3376796246e-01    3.8440600586e+02
    1.3383792341e-01    3.8447250366e+02
    1.3391774893e-01    3.8455364990e+02
    1.3399760425e-01    3.8463861084e+02
    1.3407737017e-01    3.8472512817e+02
    1.3415925205e-01    3.8480026245e+02
    1.3424910605e-01    3.8489208984e+02
    1.3432885706e-01    3.8497811890e+02
    1.3441869617e-01    3.8506259155e+02
    1.3451814651e-01    3.8516174316e+02
    1.3460785151e-01    3.8525759888e+02
    1.3471709192e-01    3.8536355591e+02
    1.3482986391e-01    3.8547268677e+02
    1.3493959606e-01    3.8558660889e+02
    1.3506914675e-01    3.8571228027e+02
    1.3518862426e-01    3.8583361816e+02
    1.3531807065e-01    3.8596490479e+02
    1.3545754552e-01    3.8610717773e+02
    1.3560065627e-01    3.8624380493e+02
    1.3574013114e-01    3.8639208984e+02
    1.3588954508e-01    3.8654266357e+02
    1.3604880869e-01    3.8669369507e+02
    1.3619825244e-01    3.8685424805e+02
    1.3636717200e-01    3.8701751709e+02
    1.3653117418e-01    3.8718276978e+02
    1.3670030236e-01    3.8735461426e+02
    1.3688001037e-01    3.8753039551e+02
endcurve
