Curveplot
LS-DYNA keyword deck by LS-PrePost
Time
Effective Stress (v-m)
Element id
Sh-314 (ip=1) #pts=2001
* Minval=     0.0000000000e+00 at time=         0.0000000000
* Maxval=     3.8753039551e+02 at time=         0.0099998703
    0.0000000000e+00    0.0000000000e+00
    4.7574098971e-06    0.0000000000e+00
    9.7652100521e-06    0.0000000000e+00
    1.4772999748e-05    6.1449100494e+01
    1.9780800358e-05    9.1563140869e+01
    2.4788800147e-05    7.8490242004e+01
    2.9797900424e-05    9.2086189270e+01
    3.4808701457e-05    7.6032592773e+01
    3.9819900849e-05    9.8575439453e+01
    4.4830998377e-05    1.6646025085e+02
    4.9842099543e-05    1.6421218872e+02
    5.4853400798e-05    1.5556427002e+02
    5.9864498326e-05    1.7356977844e+02
    6.4875697717e-05    1.6206974792e+02
    6.9886897109e-05    2.0328521729e+02
    7.4898096500e-05    2.3039060974e+02
    7.9909601482e-05    2.5001539612e+02
    8.4922001406e-05    2.3529719543e+02
    8.9935099822e-05    2.4540200806e+02
    9.4947798061e-05    2.4320635986e+02
    9.9960299849e-05    2.4831613159e+02
    1.0497299809e-04    2.4087571716e+02
    1.0998499783e-04    2.5006411743e+02
    1.1499800166e-04    2.4906474304e+02
    1.1975999951e-04    2.4961946106e+02
    1.2477299606e-04    2.4849629211e+02
    1.2978599989e-04    2.5010893250e+02
    1.3479799964e-04    2.4941688538e+02
    1.3981100346e-04    2.5019769287e+02
    1.4482399274e-04    2.5020620728e+02
    1.4983699657e-04    2.5023445129e+02
    1.5484899632e-04    2.5025599670e+02
    1.5986200015e-04    2.5026486206e+02
    1.6487500397e-04    2.5030221558e+02
    1.6988799325e-04    2.5032086182e+02
    1.7490099708e-04    2.5035156250e+02
    1.7991400091e-04    2.5038609314e+02
    1.8492700474e-04    2.5044229126e+02
    1.8993900449e-04    2.5051634216e+02
    1.9495199376e-04    2.5060314941e+02
    1.9996499759e-04    2.5072462463e+02
    2.0497800142e-04    2.5087168884e+02
    2.0999100525e-04    2.5103419495e+02
    2.1475300309e-04    2.5120494080e+02
    2.1976600692e-04    2.5139579773e+02
    2.2477899620e-04    2.5163131714e+02
    2.2979200003e-04    2.5188159180e+02
    2.3480500386e-04    2.5219841003e+02
    2.3981799313e-04    2.5257231140e+02
    2.4483099696e-04    2.5301416016e+02
    2.4984398624e-04    2.5350570679e+02
    2.5485700462e-04    2.5401174927e+02
    2.5986999390e-04    2.5451725769e+02
    2.6488301228e-04    2.5496527100e+02
    2.6989600156e-04    2.5533222961e+02
    2.7490899083e-04    2.5560131836e+02
    2.7992200921e-04    2.5574977112e+02
    2.8493499849e-04    2.5582398987e+02
    2.8994900640e-04    2.5584146118e+02
    2.9496199568e-04    2.5565141296e+02
    2.9997501406e-04    2.5584690857e+02
    3.0498800334e-04    2.5524772644e+02
    3.0975000118e-04    2.5585557556e+02
    3.1476299046e-04    2.5584817505e+02
    3.1977600884e-04    2.5572750854e+02
    3.2478998764e-04    2.5586076355e+02
    3.2980300603e-04    2.5545985413e+02
    3.3481599530e-04    2.5588247681e+02
    3.3982901368e-04    2.5588220215e+02
    3.4484200296e-04    2.5589993286e+02
    3.4985499224e-04    2.5590075684e+02
    3.5486900015e-04    2.5591482544e+02
    3.5988198943e-04    2.5594300842e+02
    3.6489500781e-04    2.5595819092e+02
    3.6990799708e-04    2.5599620056e+02
    3.7492098636e-04    2.5602233887e+02
    3.7993499427e-04    2.5606033325e+02
    3.8494801265e-04    2.5609118652e+02
    3.8996100193e-04    2.5612521362e+02
    3.9497399121e-04    2.5616912842e+02
    3.9998799912e-04    2.5620324707e+02
    4.0474999696e-04    2.5622906494e+02
    4.0976400487e-04    2.5626144409e+02
    4.1477699415e-04    2.5628857422e+02
    4.1979001253e-04    2.5631463623e+02
    4.2480399134e-04    2.5633483887e+02
    4.2981700972e-04    2.5635675049e+02
    4.3483098852e-04    2.5637722778e+02
    4.3984400691e-04    2.5640344238e+02
    4.4485798571e-04    2.5642361450e+02
    4.4987100409e-04    2.5643975830e+02
    4.5488501200e-04    2.5646313477e+02
    4.5989800128e-04    2.5648159790e+02
    4.6491200919e-04    2.5650399780e+02
    4.6992499847e-04    2.5652551270e+02
    4.7493900638e-04    2.5655215454e+02
    4.7995199566e-04    2.5658715820e+02
    4.8496600357e-04    2.5662725830e+02
    4.8997998238e-04    2.5666598511e+02
    4.9499399029e-04    2.5672106934e+02
    4.9975700676e-04    2.5678881836e+02
    5.0477002515e-04    2.5687030029e+02
    5.0978397485e-04    2.5696530151e+02
    5.1479798276e-04    2.5707598877e+02
    5.1981199067e-04    2.5721017456e+02
    5.2482599858e-04    2.5735205078e+02
    5.2983901696e-04    2.5752658081e+02
    5.3485302487e-04    2.5770620728e+02
    5.3986697458e-04    2.5791928101e+02
    5.4488098249e-04    2.5813818359e+02
    5.4989499040e-04    2.5838757324e+02
    5.5490899831e-04    2.5864279175e+02
    5.5992300622e-04    2.5891775513e+02
    5.6493701413e-04    2.5920101929e+02
    5.6995102204e-04    2.5949893188e+02
    5.7496497175e-04    2.5978588867e+02
    5.7997897966e-04    2.6007467651e+02
    5.8499298757e-04    2.6035345459e+02
    5.8975600405e-04    2.6060394287e+02
    5.9477001196e-04    2.6084826660e+02
    5.9978500940e-04    2.6107464600e+02
    6.0479901731e-04    2.6128085327e+02
    6.0981302522e-04    2.6145733643e+02
    6.1482697492e-04    2.6161798096e+02
    6.1984098284e-04    2.6176153564e+02
    6.2485598028e-04    2.6188476562e+02
    6.2986998819e-04    2.6198132324e+02
    6.3488399610e-04    2.6206463623e+02
    6.3989800401e-04    2.6211538696e+02
    6.4491300145e-04    2.6216070557e+02
    6.4992700936e-04    2.6218609619e+02
    6.5494200680e-04    2.6217434692e+02
    6.5995601472e-04    2.6209924316e+02
    6.6497101216e-04    2.6217349243e+02
    6.6998502007e-04    2.6205398560e+02
    6.7474902608e-04    2.6218850708e+02
    6.7976402352e-04    2.6212118530e+02
    6.8477797322e-04    2.6219198608e+02
    6.8979302887e-04    2.6219119263e+02
    6.9480802631e-04    2.6219934082e+02
    6.9982197601e-04    2.6220553589e+02
    7.0483697345e-04    2.6222125244e+02
    7.0985098137e-04    2.6224649048e+02
    7.1486597881e-04    2.6228140259e+02
    7.1988097625e-04    2.6231018066e+02
    7.2489498416e-04    2.6234030151e+02
    7.2990899207e-04    2.6237792969e+02
    7.3492398951e-04    2.6240652466e+02
    7.3993799742e-04    2.6243334961e+02
    7.4495299486e-04    2.6245883179e+02
    7.4996700278e-04    2.6248455811e+02
    7.5498101069e-04    2.6251324463e+02
    7.5999600813e-04    2.6254339600e+02
    7.6475902461e-04    2.6257257080e+02
    7.6977297431e-04    2.6260510254e+02
    7.7478698222e-04    2.6264117432e+02
    7.7980099013e-04    2.6267239380e+02
    7.8481499804e-04    2.6272140503e+02
    7.8982900595e-04    2.6276229858e+02
    7.9484202433e-04    2.6281832886e+02
    7.9985597404e-04    2.6288061523e+02
    8.0486899242e-04    2.6295086670e+02
    8.0988300033e-04    2.6303210449e+02
    8.1489601871e-04    2.6312838745e+02
    8.1990897888e-04    2.6322903442e+02
    8.2492199726e-04    2.6333239746e+02
    8.2993402611e-04    2.6345489502e+02
    8.3494698629e-04    2.6358959961e+02
    8.3996000467e-04    2.6372866821e+02
    8.4497197531e-04    2.6388562012e+02
    8.4998499369e-04    2.6404483032e+02
    8.5499702254e-04    2.6421929932e+02
    8.5975899128e-04    2.6439520264e+02
    8.6477200966e-04    2.6459045410e+02
    8.6978398031e-04    2.6479177856e+02
    8.7479699869e-04    2.6500585938e+02
    8.7980902754e-04    2.6521746826e+02
    8.8482099818e-04    2.6543930054e+02
    8.8983401656e-04    2.6565783691e+02
    8.9484598720e-04    2.6586895752e+02
    8.9985900559e-04    2.6608035278e+02
    9.0487097623e-04    2.6628701782e+02
    9.0988399461e-04    2.6647409058e+02
    9.1489602346e-04    2.6665826416e+02
    9.1990898363e-04    2.6681671143e+02
    9.2492101248e-04    2.6696414185e+02
    9.2993298313e-04    2.6708297729e+02
    9.3494600151e-04    2.6718603516e+02
    9.3995797215e-04    2.6726223755e+02
    9.4497099053e-04    2.6731356812e+02
    9.4998301938e-04    2.6735906982e+02
    9.5499597955e-04    2.6738735962e+02
    9.5975701697e-04    2.6741851807e+02
    9.6476997714e-04    2.6744531250e+02
    9.6978200600e-04    2.6747601318e+02
    9.7479502438e-04    2.6751403809e+02
    9.7980699502e-04    2.6757046509e+02
    9.8481902387e-04    2.6763616943e+02
    9.8983198404e-04    2.6771530151e+02
    9.9484401289e-04    2.6779824829e+02
    9.9985697307e-04    2.6787872314e+02
    1.0048700497e-03    2.6796813965e+02
    1.0098799830e-03    2.6805831909e+02
    1.0148900328e-03    2.6814724731e+02
    1.0199099779e-03    2.6822055054e+02
    1.0249200277e-03    2.6828048706e+02
    1.0299299611e-03    2.6832913208e+02
    1.0349400109e-03    2.6836096191e+02
    1.0399599560e-03    2.6837722778e+02
    1.0449700058e-03    2.6839077759e+02
    1.0499800555e-03    2.6839297485e+02
    1.0549899889e-03    2.6839001465e+02
    1.0597499786e-03    2.6839126587e+02
    1.0647700401e-03    2.6839981079e+02
    1.0697799735e-03    2.6840875244e+02
    1.0747900233e-03    2.6841714478e+02
    1.0797999566e-03    2.6843170166e+02
    1.0848100064e-03    2.6846136475e+02
    1.0898299515e-03    2.6849682617e+02
    1.0948400013e-03    2.6853012085e+02
    1.0998500511e-03    2.6857504272e+02
    1.1048599845e-03    2.6861892700e+02
    1.1098700343e-03    2.6866671753e+02
    1.1148799676e-03    2.6871441650e+02
    1.1198900174e-03    2.6875830078e+02
    1.1248999508e-03    2.6880358887e+02
    1.1299100006e-03    2.6884970093e+02
    1.1349200504e-03    2.6888409424e+02
    1.1399299838e-03    2.6893524170e+02
    1.1449400336e-03    2.6898422241e+02
    1.1499499669e-03    2.6903201294e+02
    1.1549600167e-03    2.6908273315e+02
    1.1599699501e-03    2.6914517212e+02
    1.1649799999e-03    2.6920291138e+02
    1.1699900497e-03    2.6926052856e+02
    1.1749899713e-03    2.6932574463e+02
    1.1797499610e-03    2.6938467407e+02
    1.1847600108e-03    2.6944992065e+02
    1.1897699442e-03    2.6951467896e+02
    1.1947799940e-03    2.6956250000e+02
    1.1997800320e-03    2.6961172485e+02
    1.2047899654e-03    2.6965921021e+02
    1.2098000152e-03    2.6970751953e+02
    1.2148099486e-03    2.6975906372e+02
    1.2198099867e-03    2.6981713867e+02
    1.2248200364e-03    2.6986871338e+02
    1.2298299698e-03    2.6994335938e+02
    1.2348400196e-03    2.7002023315e+02
    1.2398400577e-03    2.7011367798e+02
    1.2448499911e-03    2.7021109009e+02
    1.2498600408e-03    2.7032983398e+02
    1.2548599625e-03    2.7045785522e+02
    1.2598700123e-03    2.7060110474e+02
    1.2648799457e-03    2.7076437378e+02
    1.2698799837e-03    2.7093835449e+02
    1.2748900335e-03    2.7111737061e+02
    1.2798999669e-03    2.7132196045e+02
    1.2849000050e-03    2.7152255249e+02
    1.2899100548e-03    2.7173049927e+02
    1.2949199881e-03    2.7192669678e+02
    1.2999200262e-03    2.7212677002e+02
    1.3049299596e-03    2.7231893921e+02
    1.3099299977e-03    2.7250405884e+02
    1.3149400475e-03    2.7266830444e+02
    1.3199499808e-03    2.7282614136e+02
    1.3249500189e-03    2.7296783447e+02
    1.3299599523e-03    2.7310733032e+02
    1.3349700021e-03    2.7322229004e+02
    1.3399700401e-03    2.7333624268e+02
    1.3449799735e-03    2.7345086670e+02
    1.3499800116e-03    2.7355206299e+02
    1.3549899450e-03    2.7364270020e+02
    1.3599999947e-03    2.7373123169e+02
    1.3647499727e-03    2.7381213379e+02
    1.3697600225e-03    2.7388293457e+02
    1.3747599442e-03    2.7394052124e+02
    1.3797699939e-03    2.7399176025e+02
    1.3847800437e-03    2.7402725220e+02
    1.3897799654e-03    2.7405560303e+02
    1.3947900152e-03    2.7407040405e+02
    1.3997900533e-03    2.7408636475e+02
    1.4047999866e-03    2.7410058594e+02
    1.4098100364e-03    2.7411685181e+02
    1.4148099581e-03    2.7413113403e+02
    1.4198200079e-03    2.7414859009e+02
    1.4248200459e-03    2.7417617798e+02
    1.4298299793e-03    2.7421499634e+02
    1.4348400291e-03    2.7425634766e+02
    1.4398399508e-03    2.7429730225e+02
    1.4448500006e-03    2.7434039307e+02
    1.4498500386e-03    2.7439343262e+02
    1.4548599720e-03    2.7444570923e+02
    1.4598600101e-03    2.7449948120e+02
    1.4648699434e-03    2.7454205322e+02
    1.4698699815e-03    2.7459347534e+02
    1.4748800313e-03    2.7463711548e+02
    1.4798899647e-03    2.7468518066e+02
    1.4848900028e-03    2.7471746826e+02
    1.4899000525e-03    2.7475512695e+02
    1.4949099859e-03    2.7479272461e+02
    1.4999100240e-03    2.7483251953e+02
    1.5049199574e-03    2.7485778809e+02
    1.5099300072e-03    2.7489743042e+02
    1.5149300452e-03    2.7493359375e+02
    1.5199399786e-03    2.7496224976e+02
    1.5249500284e-03    2.7500973511e+02
    1.5299499501e-03    2.7504913330e+02
    1.5349599998e-03    2.7509820557e+02
    1.5399700496e-03    2.7514828491e+02
    1.5449699713e-03    2.7519897461e+02
    1.5499800211e-03    2.7525930786e+02
    1.5549899545e-03    2.7532125854e+02
    1.5600000042e-03    2.7539309692e+02
    1.5647499822e-03    2.7545373535e+02
    1.5697600320e-03    2.7552749634e+02
    1.5747699654e-03    2.7559692383e+02
    1.5797800152e-03    2.7565982056e+02
    1.5847800532e-03    2.7572946167e+02
    1.5897899866e-03    2.7580014038e+02
    1.5948000364e-03    2.7586999512e+02
    1.5998099698e-03    2.7593829346e+02
    1.6048200196e-03    2.7600680542e+02
    1.6098299529e-03    2.7607498169e+02
    1.6148299910e-03    2.7614208984e+02
    1.6198400408e-03    2.7621060181e+02
    1.6248499742e-03    2.7628738403e+02
    1.6298600240e-03    2.7636483765e+02
    1.6348699573e-03    2.7645263672e+02
    1.6398800071e-03    2.7654016113e+02
    1.6448900569e-03    2.7663870239e+02
    1.6498899786e-03    2.7674789429e+02
    1.6549000284e-03    2.7686819458e+02
    1.6599099617e-03    2.7698837280e+02
    1.6649200115e-03    2.7711972046e+02
    1.6699299449e-03    2.7725891113e+02
    1.6749399947e-03    2.7740148926e+02
    1.6799500445e-03    2.7755364990e+02
    1.6849599779e-03    2.7771560669e+02
    1.6899700277e-03    2.7788125610e+02
    1.6949799610e-03    2.7804409790e+02
    1.6999900108e-03    2.7821600342e+02
    1.7049999442e-03    2.7838412476e+02
    1.7097600503e-03    2.7855218506e+02
    1.7147699837e-03    2.7871261597e+02
    1.7197800335e-03    2.7888262939e+02
    1.7247899668e-03    2.7904000854e+02
    1.7298000166e-03    2.7918228149e+02
    1.7348099500e-03    2.7932675171e+02
    1.7398199998e-03    2.7945684814e+02
    1.7448300496e-03    2.7957043457e+02
    1.7498399829e-03    2.7967904663e+02
    1.7548500327e-03    2.7976977539e+02
    1.7598599661e-03    2.7984960938e+02
    1.7648700159e-03    2.7991772461e+02
    1.7698899610e-03    2.7997500610e+02
    1.7749000108e-03    2.8003323364e+02
    1.7799099442e-03    2.8006787109e+02
    1.7849199940e-03    2.8010656738e+02
    1.7899300437e-03    2.8013079834e+02
    1.7949499888e-03    2.8015905762e+02
    1.7999600386e-03    2.8017538452e+02
    1.8049699720e-03    2.8020260620e+02
    1.8099900335e-03    2.8021902466e+02
    1.8149999669e-03    2.8022814941e+02
    1.8197599566e-03    2.8025421143e+02
    1.8247800181e-03    2.8026565552e+02
    1.8297899514e-03    2.8029318237e+02
    1.8348100130e-03    2.8031396484e+02
    1.8398199463e-03    2.8034463501e+02
    1.8448400078e-03    2.8037402344e+02
    1.8498500576e-03    2.8040606689e+02
    1.8548700027e-03    2.8044564819e+02
    1.8598800525e-03    2.8047604370e+02
    1.8648999976e-03    2.8051754761e+02
    1.8699100474e-03    2.8054714966e+02
    1.8749299925e-03    2.8058740234e+02
    1.8799500540e-03    2.8061975098e+02
    1.8849599874e-03    2.8065679932e+02
    1.8899800489e-03    2.8069979858e+02
    1.8949899822e-03    2.8073748779e+02
    1.8997599836e-03    2.8077813721e+02
    1.9047800452e-03    2.8080938721e+02
    1.9097899785e-03    2.8085644531e+02
    1.9148100400e-03    2.8090069580e+02
    1.9198299851e-03    2.8094619751e+02
    1.9248400349e-03    2.8098010254e+02
    1.9298599800e-03    2.8102621460e+02
    1.9348800415e-03    2.8106948853e+02
    1.9398899749e-03    2.8111489868e+02
    1.9449100364e-03    2.8116656494e+02
    1.9499299815e-03    2.8120468140e+02
    1.9549499266e-03    2.8126269531e+02
    1.9599599764e-03    2.8131402588e+02
    1.9649800379e-03    2.8136227417e+02
    1.9700000994e-03    2.8142221069e+02
    1.9747701008e-03    2.8148107910e+02
    1.9797799177e-03    2.8155053711e+02
    1.9847999793e-03    2.8162136841e+02
    1.9898200408e-03    2.8169229126e+02
    1.9948401023e-03    2.8176306152e+02
    1.9998599309e-03    2.8183572388e+02
    2.0048799925e-03    2.8191329956e+02
    2.0099000540e-03    2.8199679565e+02
    2.0149101038e-03    2.8207434082e+02
    2.0199299324e-03    2.8215612793e+02
    2.0249499939e-03    2.8223770142e+02
    2.0299700554e-03    2.8232510376e+02
    2.0349898841e-03    2.8241720581e+02
    2.0397598855e-03    2.8249398804e+02
    2.0447799470e-03    2.8258447266e+02
    2.0498000085e-03    2.8267346191e+02
    2.0548200700e-03    2.8277197266e+02
    2.0598398987e-03    2.8287158203e+02
    2.0648599602e-03    2.8297009277e+02
    2.0698800217e-03    2.8307009888e+02
    2.0749000832e-03    2.8317962646e+02
    2.0799199119e-03    2.8329006958e+02
    2.0849399734e-03    2.8340240479e+02
    2.0899600349e-03    2.8352975464e+02
    2.0949800964e-03    2.8364401245e+02
    2.1000099368e-03    2.8377651978e+02
    2.1047799382e-03    2.8389486694e+02
    2.1097999997e-03    2.8402380371e+02
    2.1148200613e-03    2.8414721680e+02
    2.1198398899e-03    2.8427798462e+02
    2.1248599514e-03    2.8440258789e+02
    2.1298900247e-03    2.8451934814e+02
    2.1349100862e-03    2.8463796997e+02
    2.1399299148e-03    2.8475949097e+02
    2.1449499764e-03    2.8486999512e+02
    2.1499800496e-03    2.8498028564e+02
    2.1550001111e-03    2.8507827759e+02
    2.1597798914e-03    2.8517959595e+02
    2.1647999529e-03    2.8526663208e+02
    2.1698200144e-03    2.8536666870e+02
    2.1748500876e-03    2.8544622803e+02
    2.1798799280e-03    2.8553488159e+02
    2.1848999895e-03    2.8562399292e+02
    2.1899300627e-03    2.8570364380e+02
    2.1949498914e-03    2.8579248047e+02
    2.1999799646e-03    2.8587326050e+02
    2.2050100379e-03    2.8595483398e+02
    2.2097800393e-03    2.8602545166e+02
    2.2148101125e-03    2.8610610962e+02
    2.2198399529e-03    2.8616949463e+02
    2.2248700261e-03    2.8623715210e+02
    2.2299000993e-03    2.8630236816e+02
    2.2349199280e-03    2.8636029053e+02
    2.2399500012e-03    2.8641244507e+02
    2.2449800745e-03    2.8646279907e+02
    2.2497600876e-03    2.8651150513e+02
    2.2547899280e-03    2.8655322266e+02
    2.2598200012e-03    2.8659042358e+02
    2.2648600861e-03    2.8661978149e+02
    2.2698899265e-03    2.8664801025e+02
    2.2749199998e-03    2.8666513062e+02
    2.2799500730e-03    2.8668304443e+02
    2.2849899251e-03    2.8670071411e+02
    2.2897699382e-03    2.8671749878e+02
    2.2948000114e-03    2.8673519897e+02
    2.2998400964e-03    2.8675216675e+02
    2.3048699368e-03    2.8676986694e+02
    2.3099100217e-03    2.8679940796e+02
    2.3149400949e-03    2.8682958984e+02
    2.3199799471e-03    2.8686965942e+02
    2.3247599602e-03    2.8690136719e+02
    2.3298000451e-03    2.8695169067e+02
    2.3348298855e-03    2.8699267578e+02
    2.3398699705e-03    2.8703622437e+02
    2.3449000437e-03    2.8708715820e+02
    2.3499398958e-03    2.8713806152e+02
    2.3549799807e-03    2.8718151855e+02
    2.3597599939e-03    2.8722842407e+02
    2.3648000788e-03    2.8728121948e+02
    2.3698399309e-03    2.8732955933e+02
    2.3748700041e-03    2.8736892700e+02
    2.3799100891e-03    2.8741995239e+02
    2.3849499412e-03    2.8746658325e+02
    2.3899800144e-03    2.8750711060e+02
    2.3947700392e-03    2.8755499268e+02
    2.3998098914e-03    2.8759423828e+02
    2.4048499763e-03    2.8764367676e+02
    2.4098800495e-03    2.8769378662e+02
    2.4149199016e-03    2.8775296021e+02
    2.4199599866e-03    2.8781332397e+02
    2.4250000715e-03    2.8787255859e+02
    2.4297900964e-03    2.8793316650e+02
    2.4348199368e-03    2.8799365234e+02
    2.4398600217e-03    2.8806289673e+02
    2.4449001066e-03    2.8813317871e+02
    2.4499399588e-03    2.8820327759e+02
    2.4549800437e-03    2.8827215576e+02
    2.4597700685e-03    2.8834143066e+02
    2.4648099206e-03    2.8842013550e+02
    2.4698500056e-03    2.8849844360e+02
    2.4748900905e-03    2.8858761597e+02
    2.4799299426e-03    2.8867837524e+02
    2.4849700276e-03    2.8876712036e+02
    2.4897600524e-03    2.8885964966e+02
    2.4947999045e-03    2.8897006226e+02
    2.4998399895e-03    2.8908102417e+02
    2.5048800744e-03    2.8919393921e+02
    2.5099199265e-03    2.8930511475e+02
    2.5149600115e-03    2.8941815186e+02
    2.5200000964e-03    2.8954003906e+02
    2.5247898884e-03    2.8965112305e+02
    2.5298399851e-03    2.8976135254e+02
    2.5348800700e-03    2.8987124634e+02
    2.5399199221e-03    2.8998120117e+02
    2.5449600071e-03    2.9009042358e+02
    2.5500000920e-03    2.9019085693e+02
    2.5547898840e-03    2.9029708862e+02
    2.5598399807e-03    2.9040975952e+02
    2.5648800656e-03    2.9051565552e+02
    2.5699199177e-03    2.9062747192e+02
    2.5749700144e-03    2.9073641968e+02
    2.5797600392e-03    2.9083804321e+02
    2.5847998913e-03    2.9096008301e+02
    2.5898499880e-03    2.9106878662e+02
    2.5948900729e-03    2.9117367554e+02
    2.5999399368e-03    2.9128234863e+02
    2.6049800217e-03    2.9138708496e+02
    2.6097700465e-03    2.9148764038e+02
    2.6148199104e-03    2.9158999634e+02
    2.6198700070e-03    2.9167828369e+02
    2.6249100920e-03    2.9177014160e+02
    2.6299599558e-03    2.9184960938e+02
    2.6350000408e-03    2.9193054199e+02
    2.6398000773e-03    2.9200091553e+02
    2.6448499411e-03    2.9206991577e+02
    2.6498900261e-03    2.9213842773e+02
    2.6549398899e-03    2.9219732666e+02
    2.6599899866e-03    2.9225756836e+02
    2.6647900231e-03    2.9231457520e+02
    2.6698398869e-03    2.9236648560e+02
    2.6748899836e-03    2.9241491699e+02
    2.6799400803e-03    2.9245339966e+02
    2.6849899441e-03    2.9250521851e+02
    2.6897899806e-03    2.9254193115e+02
    2.6948400773e-03    2.9257379150e+02
    2.6998899411e-03    2.9261392212e+02
    2.7049400378e-03    2.9264242554e+02
    2.7099899016e-03    2.9267593384e+02
    2.7147899382e-03    2.9270205688e+02
    2.7198400348e-03    2.9273403931e+02
    2.7248898987e-03    2.9275253296e+02
    2.7299500071e-03    2.9278002930e+02
    2.7350001037e-03    2.9279965210e+02
    2.7397999074e-03    2.9281701660e+02
    2.7448500041e-03    2.9283544922e+02
    2.7499001008e-03    2.9285604858e+02
    2.7549599763e-03    2.9288348389e+02
    2.7600100730e-03    2.9290371704e+02
    2.7648101095e-03    2.9293170166e+02
    2.7698599733e-03    2.9296057129e+02
    2.7749200817e-03    2.9299227905e+02
    2.7799699455e-03    2.9303067017e+02
    2.7847699821e-03    2.9306469727e+02
    2.7898300905e-03    2.9310305786e+02
    2.7948799543e-03    2.9314453125e+02
    2.7999300510e-03    2.9318408203e+02
    2.8049899265e-03    2.9323284912e+02
    2.8097899631e-03    2.9327780151e+02
    2.8148400597e-03    2.9332443237e+02
    2.8198999353e-03    2.9336892700e+02
    2.8249500319e-03    2.9341845703e+02
    2.8300099075e-03    2.9346478271e+02
    2.8348099440e-03    2.9350900269e+02
    2.8398700524e-03    2.9356289673e+02
    2.8449199162e-03    2.9361608887e+02
    2.8499800246e-03    2.9366458130e+02
    2.8547800612e-03    2.9371359253e+02
    2.8598399367e-03    2.9377432251e+02
    2.8649000451e-03    2.9383309937e+02
    2.8699499089e-03    2.9389260864e+02
    2.8750100173e-03    2.9395294189e+02
    2.8798200656e-03    2.9401129150e+02
    2.8848699294e-03    2.9407339478e+02
    2.8899300378e-03    2.9414245605e+02
    2.8949899133e-03    2.9421240234e+02
    2.8997899499e-03    2.9427365112e+02
    2.9048500583e-03    2.9435018921e+02
    2.9099099338e-03    2.9442358398e+02
    2.9149700422e-03    2.9450961304e+02
    2.9197700787e-03    2.9457998657e+02
    2.9248299543e-03    2.9467117310e+02
    2.9298900627e-03    2.9475744629e+02
    2.9349499382e-03    2.9484347534e+02
    2.9400100466e-03    2.9494644165e+02
    2.9448100831e-03    2.9503039551e+02
    2.9498699587e-03    2.9513790894e+02
    2.9549300671e-03    2.9523934937e+02
    2.9599899426e-03    2.9534191895e+02
    2.9647999909e-03    2.9544958496e+02
    2.9698600993e-03    2.9556289673e+02
    2.9749199748e-03    2.9567242432e+02
    2.9799800832e-03    2.9579281616e+02
    2.9847898986e-03    2.9590621948e+02
    2.9898500070e-03    2.9601409912e+02
    2.9949101154e-03    2.9613681030e+02
    2.9999699909e-03    2.9625732422e+02
    3.0047800392e-03    2.9636782837e+02
    3.0098399147e-03    2.9647998047e+02
    3.0149100348e-03    2.9659930420e+02
    3.0199699104e-03    2.9670938110e+02
    3.0247799587e-03    2.9682089233e+02
    3.0298400670e-03    2.9692913818e+02
    3.0348999426e-03    2.9704211426e+02
    3.0399700627e-03    2.9715026855e+02
    3.0447801109e-03    2.9725396729e+02
    3.0498399865e-03    2.9735177612e+02
    3.0549000949e-03    2.9746279907e+02
    3.0599699821e-03    2.9755502319e+02
    3.0647800304e-03    2.9765139771e+02
    3.0698499177e-03    2.9774679565e+02
    3.0749100260e-03    2.9783493042e+02
    3.0799799133e-03    2.9792483521e+02
    3.0847899616e-03    2.9800622559e+02
    3.0898600817e-03    2.9808425903e+02
    3.0949199572e-03    2.9816644287e+02
    3.0999900773e-03    2.9823602295e+02
    3.1048099045e-03    2.9830529785e+02
    3.1098700128e-03    2.9836669922e+02
    3.1149399001e-03    2.9843460083e+02
    3.1200100202e-03    2.9849661255e+02
    3.1248300802e-03    2.9854421997e+02
    3.1298999675e-03    2.9859783936e+02
    3.1349700876e-03    2.9865512085e+02
    3.1397899147e-03    2.9869635010e+02
    3.1448600348e-03    2.9874542236e+02
    3.1499299221e-03    2.9877636719e+02
    3.1550000422e-03    2.9881372070e+02
    3.1598201022e-03    2.9884661865e+02
    3.1648899894e-03    2.9887371826e+02
    3.1699698884e-03    2.9890341187e+02
    3.1747899484e-03    2.9892251587e+02
    3.1798600685e-03    2.9895053101e+02
    3.1849399675e-03    2.9897009277e+02
    3.1900100876e-03    2.9898645020e+02
    3.1948299147e-03    2.9900628662e+02
    3.1999100465e-03    2.9902270508e+02
    3.2049799338e-03    2.9905203247e+02
    3.2097999938e-03    2.9907208252e+02
    3.2148798928e-03    2.9909921265e+02
    3.2199500129e-03    2.9912142944e+02
    3.2247800846e-03    2.9915924072e+02
    3.2298499718e-03    2.9919024658e+02
    3.2349301036e-03    2.9923028564e+02
    3.2399999909e-03    2.9927087402e+02
    3.2448300626e-03    2.9931219482e+02
    3.2498999499e-03    2.9936203003e+02
    3.2549800817e-03    2.9941293335e+02
    3.2597999088e-03    2.9945315552e+02
    3.2648800407e-03    2.9950302124e+02
    3.2699599396e-03    2.9955404663e+02
    3.2747799996e-03    2.9961358643e+02
    3.2798598986e-03    2.9966369629e+02
    3.2849400304e-03    2.9971444702e+02
    3.2900099177e-03    2.9977371216e+02
    3.2948399894e-03    2.9982339478e+02
    3.2999198884e-03    2.9988302612e+02
    3.3050000202e-03    2.9994201660e+02
    3.3098200802e-03    3.0000128174e+02
    3.3148999792e-03    3.0007119751e+02
    3.3199801110e-03    3.0013214111e+02
    3.3247999381e-03    3.0020147705e+02
    3.3298800699e-03    3.0027264404e+02
    3.3349599689e-03    3.0034072876e+02
    3.3397900406e-03    3.0042010498e+02
    3.3448699396e-03    3.0049301147e+02
    3.3499500714e-03    3.0057177734e+02
    3.3547799103e-03    3.0064361572e+02
    3.3598600421e-03    3.0073318481e+02
    3.3649399411e-03    3.0081326294e+02
    3.3697700128e-03    3.0089340210e+02
    3.3748499118e-03    3.0098419189e+02
    3.3799300436e-03    3.0107360840e+02
    3.3850099426e-03    3.0116284180e+02
    3.3898400143e-03    3.0124282837e+02
    3.3949199133e-03    3.0134197998e+02
    3.4000000451e-03    3.0143197632e+02
    3.4048298839e-03    3.0152273560e+02
    3.4099100158e-03    3.0162109375e+02
    3.4149999265e-03    3.0172201538e+02
    3.4198299982e-03    3.0183084106e+02
    3.4249098971e-03    3.0193240356e+02
    3.4299900290e-03    3.0204171753e+02
    3.4348201007e-03    3.0214395142e+02
    3.4398999996e-03    3.0226431274e+02
    3.4449899103e-03    3.0237573242e+02
    3.4498199821e-03    3.0248498535e+02
    3.4549001139e-03    3.0260733032e+02
    3.4599900246e-03    3.0271774292e+02
    3.4648200963e-03    3.0283105469e+02
    3.4698999953e-03    3.0294149780e+02
    3.4749899060e-03    3.0305242920e+02
    3.4798199777e-03    3.0315408325e+02
    3.4849098884e-03    3.0326159668e+02
    3.4899900202e-03    3.0336459351e+02
    3.4948301036e-03    3.0346252441e+02
    3.4999100026e-03    3.0356320190e+02
    3.5049999133e-03    3.0365576172e+02
    3.5098299850e-03    3.0375332642e+02
    3.5149198957e-03    3.0383425903e+02
    3.5200100392e-03    3.0392559814e+02
    3.5248401109e-03    3.0400170898e+02
    3.5299300216e-03    3.0408694458e+02
    3.5347701050e-03    3.0416262817e+02
    3.5398600157e-03    3.0423443604e+02
    3.5449499264e-03    3.0430554199e+02
    3.5497799981e-03    3.0437341309e+02
    3.5548799206e-03    3.0443530273e+02
    3.5599700641e-03    3.0449563599e+02
    3.5648099147e-03    3.0454348755e+02
    3.5699000582e-03    3.0459576416e+02
    3.5749899689e-03    3.0464389038e+02
    3.5798300523e-03    3.0468594360e+02
    3.5849199630e-03    3.0473468018e+02
    3.5900198855e-03    3.0476428223e+02
    3.5948599689e-03    3.0480474854e+02
    3.5999501124e-03    3.0483410645e+02
    3.6047899630e-03    3.0486221313e+02
    3.6098801065e-03    3.0489221191e+02
    3.6149800289e-03    3.0492037964e+02
    3.6198201124e-03    3.0494027710e+02
    3.6249100231e-03    3.0495828247e+02
    3.6300099455e-03    3.0497796631e+02
    3.6348500289e-03    3.0499526978e+02
    3.6399399396e-03    3.0501556396e+02
    3.6447800230e-03    3.0504473877e+02
    3.6498799454e-03    3.0506277466e+02
    3.6549700890e-03    3.0509326172e+02
    3.6598099396e-03    3.0511221313e+02
    3.6649100948e-03    3.0514193726e+02
    3.6700000055e-03    3.0517446899e+02
    3.6748400889e-03    3.0520114136e+02
    3.6799400114e-03    3.0524411011e+02
    3.6847800948e-03    3.0527325439e+02
    3.6898800172e-03    3.0531204224e+02
    3.6949799396e-03    3.0534490967e+02
    3.6998200230e-03    3.0539227295e+02
    3.7049199454e-03    3.0542434692e+02
    3.7100100890e-03    3.0547290039e+02
    3.7148599513e-03    3.0551254272e+02
    3.7199500948e-03    3.0556243896e+02
    3.7247999571e-03    3.0560238647e+02
    3.7298901007e-03    3.0565170288e+02
    3.7349900231e-03    3.0570254517e+02
    3.7398398854e-03    3.0575143433e+02
    3.7449400406e-03    3.0581307983e+02
    3.7497798912e-03    3.0586111450e+02
    3.7548800465e-03    3.0592300415e+02
    3.7599799689e-03    3.0599084473e+02
    3.7648200523e-03    3.0605160522e+02
    3.7699199747e-03    3.0611151123e+02
    3.7747700699e-03    3.0618191528e+02
    3.7798699923e-03    3.0625192261e+02
    3.7849699147e-03    3.0632382202e+02
    3.7898099981e-03    3.0639215088e+02
    3.7949199323e-03    3.0647302246e+02
    3.8000200875e-03    3.0655187988e+02
    3.8048599381e-03    3.0662304688e+02
    3.8099600933e-03    3.0670251465e+02
    3.8148099557e-03    3.0678280640e+02
    3.8199101109e-03    3.0686303711e+02
    3.8250100333e-03    3.0695211792e+02
    3.8298598956e-03    3.0704263306e+02
    3.8349600509e-03    3.0713217163e+02
    3.8398099132e-03    3.0721310425e+02
    3.8449100684e-03    3.0731329346e+02
    3.8500200026e-03    3.0740295410e+02
    3.8548700977e-03    3.0750338745e+02
    3.8599700201e-03    3.0759332275e+02
    3.8648201153e-03    3.0769348145e+02
    3.8699200377e-03    3.0779470825e+02
    3.8747699000e-03    3.0789349365e+02
    3.8798800670e-03    3.0799435425e+02
    3.8849799894e-03    3.0810433960e+02
    3.8898300845e-03    3.0820434570e+02
    3.8949300069e-03    3.0831515503e+02
    3.8997801021e-03    3.0841506958e+02
    3.9048900362e-03    3.0852575684e+02
    3.9099999703e-03    3.0864422607e+02
    3.9148498327e-03    3.0874575806e+02
    3.9199502207e-03    3.0886508179e+02
    3.9248000830e-03    3.0896823120e+02
    3.9299097843e-03    3.0908718872e+02
    3.9350199513e-03    3.0919921875e+02
    3.9398698136e-03    3.0930014038e+02
    3.9449799806e-03    3.0940963745e+02
    3.9498298429e-03    3.0951303101e+02
    3.9549400099e-03    3.0962179565e+02
    3.9597898722e-03    3.0971191406e+02
    3.9649000391e-03    3.0981564331e+02
    3.9700102061e-03    3.0991143799e+02
    3.9748698473e-03    3.1000671387e+02
    3.9799800143e-03    3.1009497070e+02
    3.9848298766e-03    3.1017532349e+02
    3.9899400435e-03    3.1026553345e+02
    3.9948001504e-03    3.1033575439e+02
    3.9999098517e-03    3.1041470337e+02
    4.0047699586e-03    3.1047647095e+02
    4.0098801255e-03    3.1054574585e+02
    4.0149898268e-03    3.1060681152e+02
    4.0198499337e-03    3.1066467285e+02
    4.0249601007e-03    3.1072592163e+02
    4.0298202075e-03    3.1077236938e+02
    4.0349401534e-03    3.1082464600e+02
    4.0397997946e-03    3.1086355591e+02
    4.0449202061e-03    3.1090127563e+02
    4.0497798473e-03    3.1094458008e+02
    4.0548900142e-03    3.1098284912e+02
    4.0600099601e-03    3.1100961304e+02
    4.0648700669e-03    3.1104428101e+02
    4.0699900128e-03    3.1106793213e+02
    4.0748501197e-03    3.1109979248e+02
    4.0799700655e-03    3.1111914062e+02
    4.0848301724e-03    3.1114385986e+02
    4.0899501182e-03    3.1116766357e+02
    4.0948200040e-03    3.1118554688e+02
    4.0999301709e-03    3.1121328735e+02
    4.1048000567e-03    3.1124340820e+02
    4.1099200025e-03    3.1126309204e+02
    4.1147801094e-03    3.1128979492e+02
    4.1199000552e-03    3.1132217407e+02
    4.1247601621e-03    3.1136047363e+02
    4.1298801079e-03    3.1139166260e+02
    4.1350000538e-03    3.1143176270e+02
    4.1398699395e-03    3.1146459961e+02
    4.1449898854e-03    3.1150903320e+02
    4.1498499922e-03    3.1155557251e+02
    4.1549801826e-03    3.1159057617e+02
    4.1598398238e-03    3.1163351440e+02
    4.1649597697e-03    3.1168463135e+02
    4.1698301211e-03    3.1173220825e+02
    4.1749500670e-03    3.1178350830e+02
    4.1798199527e-03    3.1182476807e+02
    4.1849398986e-03    3.1188116455e+02
    4.1898000054e-03    3.1193457031e+02
    4.1949301958e-03    3.1199249268e+02
    4.1997898370e-03    3.1204293823e+02
    4.2049200274e-03    3.1210455322e+02
    4.2097801343e-03    3.1217132568e+02
    4.2149098590e-03    3.1222955322e+02
    4.2197802104e-03    3.1230322266e+02
    4.2249001563e-03    3.1237118530e+02
    4.2297700420e-03    3.1243246460e+02
    4.2348899879e-03    3.1251519775e+02
    4.2397598736e-03    3.1258306885e+02
    4.2448900640e-03    3.1266458130e+02
    4.2497501709e-03    3.1273370361e+02
    4.2548798956e-03    3.1281460571e+02
    4.2600100860e-03    3.1289355469e+02
    4.2648799717e-03    3.1297637939e+02
    4.2699999176e-03    3.1306442261e+02
    4.2748698033e-03    3.1314419556e+02
    4.2799999937e-03    3.1322601318e+02
    4.2848698795e-03    3.1331234741e+02
    4.2899898253e-03    3.1340496826e+02
    4.2948699556e-03    3.1349356079e+02
    4.2999899015e-03    3.1358197021e+02
    4.3048597872e-03    3.1367349243e+02
    4.3099899776e-03    3.1377267456e+02
    4.3148598634e-03    3.1386297607e+02
    4.3199900538e-03    3.1396563721e+02
    4.3248599395e-03    3.1406301880e+02
    4.3299901299e-03    3.1416513062e+02
    4.3348600157e-03    3.1426547241e+02
    4.3399902061e-03    3.1436221313e+02
    4.3448698707e-03    3.1446633911e+02
    4.3500000611e-03    3.1456494141e+02
    4.3548699468e-03    3.1466674805e+02
    4.3600001372e-03    3.1477682495e+02
    4.3648700230e-03    3.1487832642e+02
    4.3697501533e-03    3.1497705078e+02
    4.3748798780e-03    3.1507830811e+02
    4.3797502294e-03    3.1517861938e+02
    4.3848799542e-03    3.1528759766e+02
    4.3897600845e-03    3.1537997437e+02
    4.3948898092e-03    3.1548001099e+02
    4.3997699395e-03    3.1557968140e+02
    4.4049001299e-03    3.1568151855e+02
    4.4097797945e-03    3.1577050781e+02
    4.4149099849e-03    3.1587121582e+02
    4.4197901152e-03    3.1596145630e+02
    4.4249198399e-03    3.1605157471e+02
    4.4297999702e-03    3.1613369751e+02
    4.4349301606e-03    3.1622222900e+02
    4.4398098253e-03    3.1629727173e+02
    4.4449497946e-03    3.1638351440e+02
    4.4498299249e-03    3.1645614624e+02
    4.4549601153e-03    3.1652697754e+02
    4.4598397799e-03    3.1659469604e+02
    4.4649802148e-03    3.1665658569e+02
    4.4698598795e-03    3.1671539307e+02
    4.4747497886e-03    3.1676788330e+02
    4.4798799790e-03    3.1681558228e+02
    4.4847698882e-03    3.1685809326e+02
    4.4899098575e-03    3.1690521240e+02
    4.4947899878e-03    3.1693637085e+02
    4.4999299571e-03    3.1697341919e+02
    4.5048100874e-03    3.1700411987e+02
    4.5099500567e-03    3.1703366089e+02
    4.5148301870e-03    3.1705157471e+02
    4.5199701563e-03    3.1708181763e+02
    4.5248498209e-03    3.1709997559e+02
    4.5299897902e-03    3.1711682129e+02
    4.5348801650e-03    3.1713601685e+02
    4.5397598296e-03    3.1715362549e+02
    4.5448997989e-03    3.1717303467e+02
    4.5497901738e-03    3.1720205688e+02
    4.5549301431e-03    3.1722335815e+02
    4.5598098077e-03    3.1726019287e+02
    4.5649497770e-03    3.1729244995e+02
    4.5698401518e-03    3.1732308960e+02
    4.5749801211e-03    3.1736007690e+02
    4.5798597857e-03    3.1739456177e+02
    4.5847501606e-03    3.1743469238e+02
    4.5898901299e-03    3.1747549438e+02
    4.5947697945e-03    3.1750827026e+02
    4.5999200083e-03    3.1754928589e+02
    4.6048001386e-03    3.1758728027e+02
    4.6099401079e-03    3.1763015747e+02
    4.6148300171e-03    3.1767410278e+02
    4.6199699864e-03    3.1771380615e+02
    4.6248598956e-03    3.1775637817e+02
    4.6297498047e-03    3.1779000854e+02
    4.6348897740e-03    3.1783572388e+02
    4.6397801489e-03    3.1788156128e+02
    4.6449201182e-03    3.1793371582e+02
    4.6498100273e-03    3.1798239136e+02
    4.6549597755e-03    3.1803265381e+02
    4.6598399058e-03    3.1808087158e+02
    4.6649901196e-03    3.1814190674e+02
    4.6698800288e-03    3.1820040894e+02
    4.6747699380e-03    3.1826187134e+02
    4.6799099073e-03    3.1832135010e+02
    4.6847998165e-03    3.1839270020e+02
    4.6899500303e-03    3.1846099854e+02
    4.6948399395e-03    3.1853311157e+02
    4.6999799088e-03    3.1860147095e+02
    4.7048698179e-03    3.1868157959e+02
    4.7097601928e-03    3.1875216675e+02
    4.7149099410e-03    3.1883172607e+02
    4.7197998501e-03    3.1891113281e+02
    4.7249500640e-03    3.1900421143e+02
    4.7298399732e-03    3.1908169556e+02
    4.7347298823e-03    3.1917211914e+02
    4.7398800962e-03    3.1926467896e+02
    4.7447700053e-03    3.1935064697e+02
    4.7499202192e-03    3.1944445801e+02
    4.7548101284e-03    3.1954531860e+02
    4.7599598765e-03    3.1964291382e+02
    4.7648600303e-03    3.1973648071e+02
    4.7697499394e-03    3.1983435059e+02
    4.7749001533e-03    3.1993441772e+02
    4.7797900625e-03    3.2002700806e+02
    4.7849398106e-03    3.2012597656e+02
    4.7898399644e-03    3.2022729492e+02
    4.7947298735e-03    3.2032849121e+02
    4.7998800874e-03    3.2042810059e+02
    4.8047797754e-03    3.2052951050e+02
    4.8099299893e-03    3.2062579346e+02
    4.8148198985e-03    3.2072610474e+02
    4.8199798912e-03    3.2082760620e+02
    4.8248698004e-03    3.2092584229e+02
    4.8297699541e-03    3.2102716064e+02
    4.8349201679e-03    3.2113613892e+02
    4.8398198560e-03    3.2123803711e+02
    4.8449700698e-03    3.2133877563e+02
    4.8498702236e-03    3.2143811035e+02
    4.8547699116e-03    3.2152920532e+02
    4.8599201255e-03    3.2163854980e+02
    4.8648198135e-03    3.2173062134e+02
    4.8699700274e-03    3.2183160400e+02
    4.8748701811e-03    3.2192074585e+02
    4.8797698691e-03    3.2201251221e+02
    4.8849298619e-03    3.2211303711e+02
    4.8898300156e-03    3.2220175171e+02
    4.8947301693e-03    3.2228375244e+02
    4.8998901621e-03    3.2237268066e+02
    4.9047898501e-03    3.2245349121e+02
    4.9099498428e-03    3.2253356934e+02
    4.9148499966e-03    3.2260604858e+02
    4.9197501503e-03    3.2268383789e+02
    4.9249101430e-03    3.2274771118e+02
    4.9298098311e-03    3.2281515503e+02
    4.9349800684e-03    3.2287637329e+02
    4.9398802221e-03    3.2293423462e+02
    4.9447901547e-03    3.2298721313e+02
    4.9499501474e-03    3.2303536987e+02
    4.9548498355e-03    3.2308541870e+02
    4.9597597681e-03    3.2312655640e+02
    4.9649202265e-03    3.2316293335e+02
    4.9698301591e-03    3.2319467163e+02
    4.9747400917e-03    3.2322158813e+02
    4.9799000844e-03    3.2324520874e+02
    4.9848100170e-03    3.2327258301e+02
    4.9899700098e-03    3.2329296875e+02
    4.9948799424e-03    3.2331900024e+02
    4.9997898750e-03    3.2333850098e+02
    5.0049498677e-03    3.2336169434e+02
    5.0098598003e-03    3.2338412476e+02
    5.0147701986e-03    3.2341021729e+02
    5.0199301913e-03    3.2343206787e+02
    5.0248401240e-03    3.2346102905e+02
    5.0297500566e-03    3.2350137329e+02
    5.0349198282e-03    3.2353060913e+02
    5.0398302265e-03    3.2357461548e+02
    5.0447401591e-03    3.2361120605e+02
    5.0499001518e-03    3.2365509033e+02
    5.0548100844e-03    3.2369448853e+02
    5.0597200170e-03    3.2374447632e+02
    5.0648897886e-03    3.2378472900e+02
    5.0698001869e-03    3.2383618164e+02
    5.0749699585e-03    3.2387539673e+02
    5.0798798911e-03    3.2392694092e+02
    5.0847898237e-03    3.2397525024e+02
    5.0899600610e-03    3.2402349854e+02
    5.0948699936e-03    3.2406301880e+02
    5.0997799262e-03    3.2411434937e+02
    5.1049501635e-03    3.2417111206e+02
    5.1098600961e-03    3.2422512817e+02
    5.1147700287e-03    3.2428210449e+02
    5.1199398004e-03    3.2434133911e+02
    5.1248501986e-03    3.2440155029e+02
    5.1297699101e-03    3.2446066284e+02
    5.1349401474e-03    3.2452120972e+02
    5.1398500800e-03    3.2458489990e+02
    5.1447600126e-03    3.2465148926e+02
    5.1499297842e-03    3.2472732544e+02
    5.1548499614e-03    3.2479199219e+02
    5.1597598940e-03    3.2486535645e+02
    5.1649301313e-03    3.2494143677e+02
    5.1698498428e-03    3.2502438354e+02
    5.1747597754e-03    3.2510043335e+02
    5.1799397916e-03    3.2518283081e+02
    5.1848501898e-03    3.2526376343e+02
    5.1897699013e-03    3.2534310913e+02
    5.1949401386e-03    3.2543331909e+02
    5.1998598501e-03    3.2552413940e+02
    5.2047697827e-03    3.2561178589e+02
    5.2099497989e-03    3.2570257568e+02
    5.2148601972e-03    3.2579464722e+02
    5.2197799087e-03    3.2588168335e+02
    5.2249501459e-03    3.2598672485e+02
    5.2298698574e-03    3.2607629395e+02
    5.2347900346e-03    3.2617611694e+02
    5.2399598062e-03    3.2627838135e+02
    5.2448799834e-03    3.2636672974e+02
    5.2498001605e-03    3.2646591187e+02
    5.2547198720e-03    3.2656808472e+02
    5.2598998882e-03    3.2666452026e+02
    5.2648098208e-03    3.2675830078e+02
    5.2697299980e-03    3.2685748291e+02
    5.2749100141e-03    3.2695712280e+02
    5.2798301913e-03    3.2704858398e+02
    5.2847499028e-03    3.2714764404e+02
    5.2899299189e-03    3.2724606323e+02
    5.2948500961e-03    3.2733847046e+02
    5.2997698076e-03    3.2742709351e+02
    5.3049498238e-03    3.2752786255e+02
    5.3098700009e-03    3.2761889648e+02
    5.3147901781e-03    3.2770980835e+02
    5.3197098896e-03    3.2780032349e+02
    5.3249001503e-03    3.2789025879e+02
    5.3298198618e-03    3.2797985840e+02
    5.3347400390e-03    3.2807052612e+02
    5.3399200551e-03    3.2815869141e+02
    5.3448500112e-03    3.2824270630e+02
    5.3497701883e-03    3.2832962036e+02
    5.3549599834e-03    3.2840420532e+02
    5.3598801605e-03    3.2848449707e+02
    5.3648101166e-03    3.2855169678e+02
    5.3697298281e-03    3.2862500000e+02
    5.3749200888e-03    3.2869354248e+02
    5.3798398003e-03    3.2876281738e+02
    5.3847702220e-03    3.2881579590e+02
    5.3899600171e-03    3.2888336182e+02
    5.3948801942e-03    3.2893606567e+02
    5.3998101503e-03    3.2898458862e+02
    5.4047401063e-03    3.2903482056e+02
    5.4099299014e-03    3.2907580566e+02
    5.4148500785e-03    3.2911431885e+02
    5.4197800346e-03    3.2915283203e+02
    5.4247099906e-03    3.2918322754e+02
    5.4298997857e-03    3.2921252441e+02
    5.4348302074e-03    3.2924057007e+02
    5.4397499189e-03    3.2927108765e+02
    5.4449401796e-03    3.2929052734e+02
    5.4498701356e-03    3.2931817627e+02
    5.4548000917e-03    3.2933807373e+02
    5.4597300477e-03    3.2936483765e+02
    5.4649198428e-03    3.2938467407e+02
    5.4698497988e-03    3.2941333008e+02
    5.4747802205e-03    3.2944259644e+02
    5.4797101766e-03    3.2947344971e+02
    5.4848901927e-03    3.2951358032e+02
    5.4898201488e-03    3.2954617310e+02
    5.4947501048e-03    3.2958242798e+02
    5.4999398999e-03    3.2961840820e+02
    5.5048698559e-03    3.2965530396e+02
    5.5097998120e-03    3.2969458008e+02
    5.5147400126e-03    3.2972961426e+02
    5.5199298076e-03    3.2976541138e+02
    5.5248602293e-03    3.2980743408e+02
    5.5297901854e-03    3.2984664917e+02
    5.5347201414e-03    3.2988589478e+02
    5.5399099365e-03    3.2992398071e+02
    5.5448398925e-03    3.2996502686e+02
    5.5497800931e-03    3.3001177979e+02
    5.5547100492e-03    3.3005239868e+02
    5.5598998442e-03    3.3010235596e+02
    5.5648400448e-03    3.3015197754e+02
    5.5697700009e-03    3.3020123291e+02
    5.5746999569e-03    3.3025231934e+02
    5.5798999965e-03    3.3031137085e+02
    5.5848299526e-03    3.3036859131e+02
    5.5897599086e-03    3.3043371582e+02
    5.5947001092e-03    3.3049008179e+02
    5.5998899043e-03    3.3056195068e+02
    5.6048301049e-03    3.3062503052e+02
    5.6097600609e-03    3.3069039917e+02
    5.6146997958e-03    3.3075503540e+02
    5.6198900566e-03    3.3083193970e+02
    5.6248297915e-03    3.3089355469e+02
    5.6297699921e-03    3.3097171021e+02
    5.6346999481e-03    3.3104409790e+02
    5.6398999877e-03    3.3112445068e+02
    5.6448401883e-03    3.3120309448e+02
    5.6497701444e-03    3.3127725220e+02
    5.6547098793e-03    3.3136428833e+02
    5.6599099189e-03    3.3145254517e+02
    5.6648501195e-03    3.3153521729e+02
    5.6697800756e-03    3.3163046265e+02
    5.6747198105e-03    3.3171356201e+02
    5.6799198501e-03    3.3181283569e+02
    5.6848600507e-03    3.3191384888e+02
    5.6897997856e-03    3.3200390625e+02
    5.6947399862e-03    3.3210482788e+02
    5.6999400258e-03    3.3221096802e+02
    5.7048802264e-03    3.3230560303e+02
    5.7098199613e-03    3.3240451050e+02
    5.7147601619e-03    3.3250653076e+02
    5.7196998969e-03    3.3260821533e+02
    5.7248999365e-03    3.3271942139e+02
    5.7298401371e-03    3.3281680298e+02
    5.7347798720e-03    3.3291720581e+02
    5.7397200726e-03    3.3301022339e+02
    5.7449201122e-03    3.3311911011e+02
    5.7498598471e-03    3.3321746826e+02
    5.7548098266e-03    3.3331045532e+02
    5.7597500272e-03    3.3340652466e+02
    5.7646902278e-03    3.3350827026e+02
    5.7699000463e-03    3.3360885620e+02
    5.7748397812e-03    3.3369796753e+02
    5.7797799818e-03    3.3378988647e+02
    5.7847299613e-03    3.3388092041e+02
    5.7899300009e-03    3.3397732544e+02
    5.7948799804e-03    3.3405987549e+02
    5.7998201810e-03    3.3415005493e+02
    5.8047701605e-03    3.3422982788e+02
    5.8097201400e-03    3.3431387329e+02
    5.8149201795e-03    3.3440118408e+02
    5.8198701590e-03    3.3448202515e+02
    5.8248201385e-03    3.3455279541e+02
    5.8297701180e-03    3.3462783813e+02
    5.8347098529e-03    3.3470111084e+02
    5.8399201371e-03    3.3478060913e+02
    5.8448701166e-03    3.3484121704e+02
    5.8498200960e-03    3.3491046143e+02
    5.8547700755e-03    3.3497290039e+02
    5.8597200550e-03    3.3503222656e+02
    5.8649401180e-03    3.3509286499e+02
    5.8698900975e-03    3.3515472412e+02
    5.8748400770e-03    3.3520532227e+02
    5.8797900565e-03    3.3525500488e+02
    5.8847400360e-03    3.3529632568e+02
    5.8896997944e-03    3.3533493042e+02
    5.8949100785e-03    3.3538049316e+02
    5.8998600580e-03    3.3541369629e+02
    5.9048198164e-03    3.3544152832e+02
    5.9097697958e-03    3.3546820068e+02
    5.9147197753e-03    3.3550195312e+02
    5.9199398383e-03    3.3552679443e+02
    5.9248898178e-03    3.3554772949e+02
    5.9298397973e-03    3.3557617188e+02
    5.9348000214e-03    3.3560363770e+02
    5.9397500008e-03    3.3562506104e+02
    5.9447102249e-03    3.3565261841e+02
    5.9499200433e-03    3.3569128418e+02
    5.9548798017e-03    3.3572332764e+02
    5.9598297812e-03    3.3576104736e+02
    5.9647802263e-03    3.3580416870e+02
    5.9697399847e-03    3.3584371948e+02
    5.9747002088e-03    3.3588336182e+02
    5.9799100272e-03    3.3592843628e+02
    5.9848697856e-03    3.3597326660e+02
    5.9898202308e-03    3.3601535034e+02
    5.9947799891e-03    3.3605447388e+02
    5.9997402132e-03    3.3609320068e+02
    6.0046901926e-03    3.3614373779e+02
    6.0099097900e-03    3.3618411255e+02
    6.0148700140e-03    3.3623388672e+02
    6.0198199935e-03    3.3628451538e+02
    6.0247802176e-03    3.3633377075e+02
    6.0297399759e-03    3.3638168335e+02
    6.0347002000e-03    3.3643228149e+02
    6.0399197973e-03    3.3649044800e+02
    6.0448800214e-03    3.3655310059e+02
    6.0498397797e-03    3.3661135864e+02
    6.0547902249e-03    3.3667352295e+02
    6.0597499833e-03    3.3674209595e+02
    6.0647102073e-03    3.3680444336e+02
    6.0699298047e-03    3.3687145996e+02
    6.0748900287e-03    3.3694406128e+02
    6.0798497871e-03    3.3701147461e+02
    6.0848100111e-03    3.3708633423e+02
    6.0897697695e-03    3.3716247559e+02
    6.0947397724e-03    3.3723330688e+02
    6.0996999964e-03    3.3730526733e+02
    6.1049200594e-03    3.3739239502e+02
    6.1098798178e-03    3.3746502686e+02
    6.1148400418e-03    3.3754592896e+02
    6.1198100448e-03    3.3762091064e+02
    6.1247698031e-03    3.3770510864e+02
    6.1297300272e-03    3.3779318237e+02
    6.1346897855e-03    3.3788128662e+02
    6.1399200931e-03    3.3797442627e+02
    6.1448798515e-03    3.3805453491e+02
    6.1498498544e-03    3.3815264893e+02
    6.1548100784e-03    3.3823617554e+02
    6.1597698368e-03    3.3833276367e+02
    6.1647398397e-03    3.3842578125e+02
    6.1697000638e-03    3.3852569580e+02
    6.1749299057e-03    3.3862481689e+02
    6.1798901297e-03    3.3871691895e+02
    6.1848601326e-03    3.3881494141e+02
    6.1898301356e-03    3.3891741943e+02
    6.1947898939e-03    3.3901507568e+02
    6.1997598968e-03    3.3910983276e+02
    6.2047201209e-03    3.3920782471e+02
    6.2096901238e-03    3.3930084229e+02
    6.2149199657e-03    3.3939929199e+02
    6.2198899686e-03    3.3948849487e+02
    6.2248501927e-03    3.3958932495e+02
    6.2298201956e-03    3.3967916870e+02
    6.2347901985e-03    3.3976956177e+02
    6.2397602014e-03    3.3985867310e+02
    6.2447302043e-03    3.3994235229e+02
    6.2497002073e-03    3.4003765869e+02
    6.2546702102e-03    3.4012060547e+02
    6.2599000521e-03    3.4021072388e+02
    6.2648700550e-03    3.4028979492e+02
    6.2698400579e-03    3.4037072754e+02
    6.2748100609e-03    3.4044213867e+02
    6.2797898427e-03    3.4051925659e+02
    6.2847598456e-03    3.4059301758e+02
    6.2897298485e-03    3.4066143799e+02
    6.2946998514e-03    3.4073254395e+02
    6.2996800989e-03    3.4079064941e+02
    6.3049099408e-03    3.4086264038e+02
    6.3098901883e-03    3.4092062378e+02
    6.3148601912e-03    3.4098104858e+02
    6.3198399730e-03    3.4104080200e+02
    6.3248099759e-03    3.4109368896e+02
    6.3297902234e-03    3.4114273071e+02
    6.3347602263e-03    3.4119580078e+02
    6.3397302292e-03    3.4123651123e+02
    6.3447100110e-03    3.4128036499e+02
    6.3496800140e-03    3.4131799316e+02
    6.3549201004e-03    3.4136022949e+02
    6.3598998822e-03    3.4138998413e+02
    6.3648698851e-03    3.4142358398e+02
    6.3698501326e-03    3.4145547485e+02
    6.3748201355e-03    3.4148211670e+02
    6.3797999173e-03    3.4150350952e+02
    6.3847699203e-03    3.4152551270e+02
    6.3897501677e-03    3.4155853271e+02
    6.3947299495e-03    3.4157916260e+02
    6.3996999525e-03    3.4160961914e+02
    6.4046801999e-03    3.4164208984e+02
    6.4099198207e-03    3.4168206787e+02
    6.4148898236e-03    3.4171490479e+02
    6.4198700711e-03    3.4175186157e+02
    6.4248498529e-03    3.4179354858e+02
    6.4298198558e-03    3.4183358765e+02
    6.4348001033e-03    3.4186560059e+02
    6.4397798851e-03    3.4190472412e+02
    6.4447601326e-03    3.4194564819e+02
    6.4497399144e-03    3.4198626709e+02
    6.4547201619e-03    3.4203445435e+02
    6.4596901648e-03    3.4206823730e+02
    6.4646699466e-03    3.4211276245e+02
    6.4699100330e-03    3.4214782715e+02
    6.4748898149e-03    3.4219152832e+02
    6.4798700623e-03    3.4223327637e+02
    6.4848498441e-03    3.4227474976e+02
    6.4898300916e-03    3.4232168579e+02
    6.4948098734e-03    3.4236514282e+02
    6.4997901209e-03    3.4242068481e+02
    6.5047699027e-03    3.4247180176e+02
    6.5097599290e-03    3.4252236938e+02
    6.5147401765e-03    3.4257669067e+02
    6.5197199583e-03    3.4263565063e+02
    6.5247002058e-03    3.4269204712e+02
    6.5296799876e-03    3.4275244141e+02
    6.5346597694e-03    3.4281625366e+02
    6.5399101004e-03    3.4288275146e+02
    6.5448898822e-03    3.4295269775e+02
    6.5498799086e-03    3.4302310181e+02
    6.5548601560e-03    3.4309460449e+02
    6.5598399378e-03    3.4316198730e+02
    6.5648299642e-03    3.4323287964e+02
    6.5698102117e-03    3.4331665039e+02
    6.5747997724e-03    3.4338650513e+02
    6.5797800198e-03    3.4347521973e+02
    6.5847598016e-03    3.4355120850e+02
    6.5897498280e-03    3.4363113403e+02
    6.5947398543e-03    3.4372363281e+02
    6.5997201018e-03    3.4381137085e+02
    6.6047101282e-03    3.4389404297e+02
    6.6096899100e-03    3.4399197388e+02
    6.6146799363e-03    3.4408416748e+02
    6.6196699627e-03    3.4417575073e+02
    6.6246502101e-03    3.4427398682e+02
    6.6299000755e-03    3.4437542725e+02
    6.6348901019e-03    3.4446441650e+02
    6.6398801282e-03    3.4456460571e+02
    6.6448701546e-03    3.4466607666e+02
    6.6498499364e-03    3.4476177979e+02
    6.6548399627e-03    3.4485986328e+02
    6.6598299891e-03    3.4495349121e+02
    6.6648200154e-03    3.4505603027e+02
    6.6698100418e-03    3.4514721680e+02
    6.6748000681e-03    3.4524334717e+02
    6.6797900945e-03    3.4534451294e+02
    6.6847801208e-03    3.4544763184e+02
    6.6897701472e-03    3.4554702759e+02
    6.6947601736e-03    3.4563629150e+02
    6.6997501999e-03    3.4574066162e+02
    6.7047402263e-03    3.4582833862e+02
    6.7097400315e-03    3.4592926025e+02
    6.7147300579e-03    3.4602102661e+02
    6.7197200842e-03    3.4610968018e+02
    6.7247101106e-03    3.4620239258e+02
    6.7297099158e-03    3.4628991699e+02
    6.7346999422e-03    3.4638037109e+02
    6.7397002131e-03    3.4646139526e+02
    6.7446897738e-03    3.4653829956e+02
    6.7496900447e-03    3.4661270142e+02
    6.7546800710e-03    3.4669229126e+02
    6.7596798763e-03    3.4676239014e+02
    6.7646699026e-03    3.4683239746e+02
    6.7696701735e-03    3.4690182495e+02
    6.7746699788e-03    3.4697137451e+02
    6.7796697840e-03    3.4704043579e+02
    6.7846598104e-03    3.4710003662e+02
    6.7896600813e-03    3.4716091919e+02
    6.7946598865e-03    3.4721099854e+02
    6.7996601574e-03    3.4727136230e+02
    6.8046599627e-03    3.4732186890e+02
    6.8096597679e-03    3.4737066650e+02
    6.8146600388e-03    3.4742175293e+02
    6.8196598440e-03    3.4746078491e+02
    6.8246601149e-03    3.4751043701e+02
    6.8296599202e-03    3.4754159546e+02
    6.8346601911e-03    3.4758062744e+02
    6.8396599963e-03    3.4762048340e+02
    6.8446598016e-03    3.4765045166e+02
    6.8496600725e-03    3.4768853760e+02
    6.8546598777e-03    3.4770993042e+02
    6.8596699275e-03    3.4773834229e+02
    6.8646701984e-03    3.4777597046e+02
    6.8696700037e-03    3.4780517578e+02
    6.8746698089e-03    3.4783410645e+02
    6.8796700798e-03    3.4786175537e+02
    6.8846698850e-03    3.4790200806e+02
    6.8896799348e-03    3.4793353271e+02
    6.8946802057e-03    3.4797161865e+02
    6.8996800110e-03    3.4800457764e+02
    6.9046798162e-03    3.4805209351e+02
    6.9096898660e-03    3.4809481812e+02
    6.9146901369e-03    3.4813287354e+02
    6.9196899422e-03    3.4817507935e+02
    6.9246999919e-03    3.4822482300e+02
    6.9296997972e-03    3.4827352905e+02
    6.9347000681e-03    3.4831564331e+02
    6.9397101179e-03    3.4836468506e+02
    6.9447099231e-03    3.4840301514e+02
    6.9497199729e-03    3.4845477295e+02
    6.9547197782e-03    3.4850473022e+02
    6.9597298279e-03    3.4854483032e+02
    6.9647300988e-03    3.4860443115e+02
    6.9697401486e-03    3.4865451050e+02
    6.9747501984e-03    3.4870300293e+02
    6.9797500037e-03    3.4876324463e+02
    6.9847600535e-03    3.4881176758e+02
    6.9897701032e-03    3.4887265015e+02
    6.9947699085e-03    3.4893276978e+02
    6.9997799583e-03    3.4900198364e+02
    7.0047900081e-03    3.4906365967e+02
    7.0098000579e-03    3.4913442993e+02
    7.0147998631e-03    3.4919311523e+02
    7.0198099129e-03    3.4926535034e+02
    7.0248199627e-03    3.4933355713e+02
    7.0298300125e-03    3.4941278076e+02
    7.0348400623e-03    3.4948242188e+02
    7.0398501121e-03    3.4956124878e+02
    7.0448601618e-03    3.4963479614e+02
    7.0498702116e-03    3.4972192383e+02
    7.0548797958e-03    3.4979791260e+02
    7.0598898456e-03    3.4988305664e+02
    7.0646400563e-03    3.4996624756e+02
    7.0696501061e-03    3.5004470825e+02
    7.0746601559e-03    3.5013052368e+02
    7.0796702057e-03    3.5022445679e+02
    7.0846797898e-03    3.5031283569e+02
    7.0897000842e-03    3.5040612793e+02
    7.0947101340e-03    3.5049472046e+02
    7.0997201838e-03    3.5058489990e+02
    7.1047297679e-03    3.5067495728e+02
    7.1097500622e-03    3.5077529907e+02
    7.1147601120e-03    3.5086547852e+02
    7.1197701618e-03    3.5095675659e+02
    7.1247899905e-03    3.5105517578e+02
    7.1298000403e-03    3.5114584351e+02
    7.1348198690e-03    3.5123446655e+02
    7.1398299187e-03    3.5133401489e+02
    7.1448502131e-03    3.5142651367e+02
    7.1498597972e-03    3.5151934814e+02
    7.1548800915e-03    3.5160412598e+02
    7.1596298367e-03    3.5169427490e+02
    7.1646501310e-03    3.5178533936e+02
    7.1696699597e-03    3.5187707520e+02
    7.1746800095e-03    3.5196929932e+02
    7.1796998382e-03    3.5205532837e+02
    7.1847201325e-03    3.5214843750e+02
    7.1897399612e-03    3.5223135376e+02
    7.1947597899e-03    3.5231729126e+02
    7.1997698396e-03    3.5240139771e+02
    7.2047901340e-03    3.5248114014e+02
    7.2098099627e-03    3.5256066895e+02
    7.2148297913e-03    3.5264031982e+02
    7.2198500857e-03    3.5271240234e+02
    7.2248801589e-03    3.5277871704e+02
    7.2296299040e-03    3.5285028076e+02
    7.2346599773e-03    3.5292175293e+02
    7.2396798059e-03    3.5298727417e+02
    7.2447001003e-03    3.5304193115e+02
    7.2497199290e-03    3.5310226440e+02
    7.2547402233e-03    3.5316192627e+02
    7.2597698309e-03    3.5322177124e+02
    7.2647901252e-03    3.5327444458e+02
    7.2698099539e-03    3.5332055664e+02
    7.2748400271e-03    3.5336941528e+02
    7.2798598558e-03    3.5341635132e+02
    7.2848801501e-03    3.5345800781e+02
    7.2896401398e-03    3.5349368286e+02
    7.2946599685e-03    3.5353405762e+02
    7.2996900417e-03    3.5356637573e+02
    7.3047098704e-03    3.5360314941e+02
    7.3097301647e-03    3.5362759399e+02
    7.3147597723e-03    3.5365731812e+02
    7.3197800666e-03    3.5368777466e+02
    7.3248101398e-03    3.5371719360e+02
    7.3298299685e-03    3.5374368286e+02
    7.3348497972e-03    3.5377539062e+02
    7.3398798704e-03    3.5380258179e+02
    7.3446398601e-03    3.5383474731e+02
    7.3496601544e-03    3.5387222290e+02
    7.3546902277e-03    3.5390597534e+02
    7.3597100563e-03    3.5394314575e+02
    7.3647401296e-03    3.5398544312e+02
    7.3697599582e-03    3.5402520752e+02
    7.3747900315e-03    3.5406231689e+02
    7.3798201047e-03    3.5410757446e+02
    7.3848399334e-03    3.5414117432e+02
    7.3898700066e-03    3.5418856812e+02
    7.3946299963e-03    3.5422793579e+02
    7.3996600695e-03    3.5426773071e+02
    7.4046798982e-03    3.5430844116e+02
    7.4097099714e-03    3.5435781860e+02
    7.4147400446e-03    3.5439440918e+02
    7.4197701178e-03    3.5444357300e+02
    7.4248001911e-03    3.5448440552e+02
    7.4298200198e-03    3.5453302002e+02
    7.4348500930e-03    3.5458187866e+02
    7.4398801662e-03    3.5463473511e+02
    7.4446499348e-03    3.5468167114e+02
    7.4496800080e-03    3.5473110962e+02
    7.4547100812e-03    3.5478311157e+02
    7.4597401544e-03    3.5484143066e+02
    7.4647702277e-03    3.5490307617e+02
    7.4697998352e-03    3.5496273804e+02
    7.4748299085e-03    3.5502218628e+02
    7.4798599817e-03    3.5508325195e+02
    7.4846302159e-03    3.5514089966e+02
    7.4896598235e-03    3.5520300293e+02
    7.4946898967e-03    3.5527230835e+02
    7.4997199699e-03    3.5534371948e+02
    7.5047500432e-03    3.5541101074e+02
    7.5097898953e-03    3.5549224854e+02
    7.5148199685e-03    3.5556399536e+02
    7.5198500417e-03    3.5563833618e+02
    7.5246198103e-03    3.5571398926e+02
    7.5296498835e-03    3.5580340576e+02
    7.5346902013e-03    3.5588085938e+02
    7.5397198088e-03    3.5597323608e+02
    7.5447601266e-03    3.5606121826e+02
    7.5497901998e-03    3.5614187622e+02
    7.5548300520e-03    3.5624020386e+02
    7.5598601252e-03    3.5632360840e+02
    7.5646298937e-03    3.5641363525e+02
    7.5696702115e-03    3.5651110840e+02
    7.5747100636e-03    3.5660632324e+02
    7.5797401369e-03    3.5670535278e+02
    7.5847799890e-03    3.5679559326e+02
    7.5898198411e-03    3.5689724731e+02
    7.5948499143e-03    3.5699508667e+02
    7.5996299274e-03    3.5707836914e+02
    7.6046697795e-03    3.5717547607e+02
    7.6096998528e-03    3.5727487183e+02
    7.6147401705e-03    3.5737774658e+02
    7.6197800227e-03    3.5747552490e+02
    7.6248198748e-03    3.5756689453e+02
    7.6298601925e-03    3.5766787720e+02
    7.6346299611e-03    3.5775674438e+02
    7.6396698132e-03    3.5784753418e+02
    7.6447199099e-03    3.5794540405e+02
    7.6497602277e-03    3.5804141235e+02
    7.6548000798e-03    3.5812814331e+02
    7.6598399319e-03    3.5821929932e+02
    7.6646199450e-03    3.5831103516e+02
    7.6696597971e-03    3.5838995361e+02
    7.6747001149e-03    3.5847772217e+02
    7.6797399670e-03    3.5856784058e+02
    7.6847900636e-03    3.5865051270e+02
    7.6898299158e-03    3.5872613525e+02
    7.6946099289e-03    3.5879953003e+02
    7.6996600255e-03    3.5888046265e+02
    7.7046998776e-03    3.5894839478e+02
    7.7097499743e-03    3.5902844238e+02
    7.7147898264e-03    3.5909088135e+02
    7.7198399231e-03    3.5915890503e+02
    7.7246199362e-03    3.5922088623e+02
    7.7296700329e-03    3.5929177856e+02
    7.7347201295e-03    3.5935244751e+02
    7.7397702262e-03    3.5941000366e+02
    7.7448100783e-03    3.5946328735e+02
    7.7498601750e-03    3.5952066040e+02
    7.7546401881e-03    3.5956219482e+02
    7.7596898191e-03    3.5961218262e+02
    7.7647399157e-03    3.5965972900e+02
    7.7697900124e-03    3.5970108032e+02
    7.7748401091e-03    3.5974069214e+02
    7.7796201222e-03    3.5977642822e+02
    7.7846702188e-03    3.5981039429e+02
    7.7897198498e-03    3.5983813477e+02
    7.7947699465e-03    3.5986721802e+02
    7.7998200431e-03    3.5990725708e+02
    7.8046000563e-03    3.5993637085e+02
    7.8096501529e-03    3.5996383667e+02
    7.8146997839e-03    3.5999194336e+02
    7.8197596595e-03    3.6002450562e+02
    7.8248102218e-03    3.6006167603e+02
    7.8298598528e-03    3.6009335327e+02
    7.8346403316e-03    3.6013229370e+02
    7.8396899626e-03    3.6016616821e+02
    7.8447395936e-03    3.6020874023e+02
    7.8497901559e-03    3.6024514771e+02
    7.8548500314e-03    3.6029534912e+02
    7.8596295789e-03    3.6033465576e+02
    7.8646801412e-03    3.6037512207e+02
    7.8697400168e-03    3.6041799927e+02
    7.8747896478e-03    3.6047015381e+02
    7.8798402101e-03    3.6051333618e+02
    7.8846300021e-03    3.6056234741e+02
    7.8896796331e-03    3.6060290527e+02
    7.8947404400e-03    3.6065634155e+02
    7.8997900710e-03    3.6070547485e+02
    7.9048499465e-03    3.6075173950e+02
    7.9096304253e-03    3.6079577637e+02
    7.9146903008e-03    3.6085128784e+02
    7.9197399318e-03    3.6090335083e+02
    7.9247998074e-03    3.6096200562e+02
    7.9298503697e-03    3.6102325439e+02
    7.9346401617e-03    3.6107083130e+02
    7.9397000372e-03    3.6113009644e+02
    7.9447599128e-03    3.6119692993e+02
    7.9498095438e-03    3.6125894165e+02
    7.9548703507e-03    3.6132617188e+02
    7.9596601427e-03    3.6138336182e+02
    7.9647200182e-03    3.6145449829e+02
    7.9697798938e-03    3.6151980591e+02
    7.9748304561e-03    3.6158706665e+02
    7.9796295613e-03    3.6165298462e+02
    7.9846801236e-03    3.6172149658e+02
    7.9897399992e-03    3.6179696655e+02
    7.9947998747e-03    3.6187271118e+02
    7.9998597503e-03    3.6195111084e+02
    8.0046597868e-03    3.6202517700e+02
    8.0097196624e-03    3.6211047363e+02
    8.0147795379e-03    3.6219256592e+02
    8.0198403448e-03    3.6227398682e+02
    8.0246301368e-03    3.6236111450e+02
    8.0296900123e-03    3.6244503784e+02
    8.0347498879e-03    3.6253244019e+02
    8.0398200080e-03    3.6262280273e+02
    8.0448798835e-03    3.6271374512e+02
    8.0496696755e-03    3.6279922485e+02
    8.0547397956e-03    3.6289648438e+02
    8.0597996712e-03    3.6298370361e+02
    8.0648595467e-03    3.6308508301e+02
    8.0696595833e-03    3.6317010498e+02
    8.0747203901e-03    3.6326303101e+02
    8.0797895789e-03    3.6335629272e+02
    8.0848503858e-03    3.6344961548e+02
    8.0896504223e-03    3.6354309082e+02
    8.0947102979e-03    3.6363607788e+02
    8.0997804180e-03    3.6371850586e+02
    8.1048402935e-03    3.6381079102e+02
    8.1096403301e-03    3.6389773560e+02
    8.1147104502e-03    3.6398818970e+02
    8.1197796389e-03    3.6407556152e+02
    8.1248404458e-03    3.6416720581e+02
    8.1296497956e-03    3.6425015259e+02
    8.1347096711e-03    3.6432748413e+02
    8.1397797912e-03    3.6441687012e+02
    8.1448499113e-03    3.6450027466e+02
    8.1496499479e-03    3.6457476807e+02
    8.1547200680e-03    3.6465490723e+02
    8.1597901881e-03    3.6473107910e+02
    8.1648603082e-03    3.6480752563e+02
    8.1696603447e-03    3.6487884521e+02
    8.1747397780e-03    3.6495263672e+02
    8.1798098981e-03    3.6502008057e+02
    8.1848800182e-03    3.6508715820e+02
    8.1896800548e-03    3.6515261841e+02
    8.1947501749e-03    3.6520938110e+02
    8.1998202950e-03    3.6527923584e+02
    8.2046296448e-03    3.6533166504e+02
    8.2096997648e-03    3.6538977051e+02
    8.2147698849e-03    3.6544674683e+02
    8.2198400050e-03    3.6549761963e+02
    8.2246502861e-03    3.6553948975e+02
    8.2297204062e-03    3.6558883667e+02
    8.2347895950e-03    3.6562908936e+02
    8.2398699597e-03    3.6567306519e+02
    8.2446699962e-03    3.6570886230e+02
    8.2497401163e-03    3.6574938965e+02
    8.2548195496e-03    3.6577990723e+02
    8.2598896697e-03    3.6581643677e+02
    8.2646999508e-03    3.6584713745e+02
    8.2697700709e-03    3.6586965942e+02
    8.2748401910e-03    3.6590048218e+02
    8.2796495408e-03    3.6592800903e+02
    8.2847196609e-03    3.6596484375e+02
    8.2897897810e-03    3.6599899292e+02
    8.2948701456e-03    3.6602667236e+02
    8.2996701822e-03    3.6606292725e+02
    8.3047496155e-03    3.6610128784e+02
    8.3098197356e-03    3.6613705444e+02
    8.3146300167e-03    3.6617309570e+02
    8.3197103813e-03    3.6621466064e+02
    8.3247795701e-03    3.6625433350e+02
    8.3298599347e-03    3.6629263306e+02
    8.3346599713e-03    3.6633648682e+02
    8.3397403359e-03    3.6637234497e+02
    8.3448197693e-03    3.6641510010e+02
    8.3498898894e-03    3.6645831299e+02
    8.3547001705e-03    3.6650195312e+02
    8.3597796038e-03    3.6654626465e+02
    8.3648497239e-03    3.6658560181e+02
    8.3696600050e-03    3.6663134766e+02
    8.3747403696e-03    3.6667486572e+02
    8.3798198029e-03    3.6672308350e+02
    8.3849001676e-03    3.6677078247e+02
    8.3897104487e-03    3.6682150269e+02
    8.3947898820e-03    3.6687350464e+02
    8.3998702466e-03    3.6692889404e+02
    8.4046795964e-03    3.6697586060e+02
    8.4097599611e-03    3.6703207397e+02
    8.4148403257e-03    3.6709542847e+02
    8.4196496755e-03    3.6714312744e+02
    8.4247300401e-03    3.6721047974e+02
    8.4298104048e-03    3.6727346802e+02
    8.4348898381e-03    3.6733657837e+02
    8.4397001192e-03    3.6739196777e+02
    8.4447897971e-03    3.6745666504e+02
    8.4498701617e-03    3.6752218628e+02
    8.4546804428e-03    3.6759548950e+02
    8.4597598761e-03    3.6765832520e+02
    8.4648495540e-03    3.6773217773e+02
    8.4696598351e-03    3.6780987549e+02
    8.4747401997e-03    3.6788552856e+02
    8.4798298776e-03    3.6795758057e+02
    8.4846401587e-03    3.6803979492e+02
    8.4897298366e-03    3.6811437988e+02
    8.4948102012e-03    3.6820767212e+02
    8.4998998791e-03    3.6828585815e+02
    8.5047101602e-03    3.6837442017e+02
    8.5097998381e-03    3.6845455933e+02
    8.5148802027e-03    3.6854528809e+02
    8.5196997970e-03    3.6863525391e+02
    8.5247904062e-03    3.6872857666e+02
    8.5298800841e-03    3.6882385254e+02
    8.5346903652e-03    3.6891110229e+02
    8.5397800431e-03    3.6900244141e+02
    8.5448697209e-03    3.6909835815e+02
    8.5496902466e-03    3.6918548584e+02
    8.5547799245e-03    3.6928524780e+02
    8.5598602891e-03    3.6938696289e+02
    8.5646798834e-03    3.6947488403e+02
    8.5697695613e-03    3.6956790161e+02
    8.5748601705e-03    3.6966690063e+02
    8.5796797648e-03    3.6976266479e+02
    8.5847703740e-03    3.6986035156e+02
    8.5898600519e-03    3.6995187378e+02
    8.5946898907e-03    3.7004696655e+02
    8.5997795686e-03    3.7014126587e+02
    8.6048701778e-03    3.7023367310e+02
    8.6096897721e-03    3.7032015991e+02
    8.6147803813e-03    3.7041198730e+02
    8.6198803037e-03    3.7049630737e+02
    8.6246998981e-03    3.7058230591e+02
    8.6297895759e-03    3.7066946411e+02
    8.6348904297e-03    3.7074777222e+02
    8.6397100240e-03    3.7082229614e+02
    8.6448099464e-03    3.7090917969e+02
    8.6498996243e-03    3.7098669434e+02
    8.6547303945e-03    3.7105102539e+02
    8.6598200724e-03    3.7112625122e+02
    8.6646499112e-03    3.7119540405e+02
    8.6697498336e-03    3.7126959229e+02
    8.6748497561e-03    3.7133001709e+02
    8.6796702817e-03    3.7139730835e+02
    8.6847702041e-03    3.7146237183e+02
    8.6898701265e-03    3.7152764893e+02
    8.6946999654e-03    3.7157556152e+02
    8.6997998878e-03    3.7163940430e+02
    8.7048998103e-03    3.7168981934e+02
    8.7097203359e-03    3.7173403931e+02
    8.7148202583e-03    3.7179104614e+02
    8.7196500972e-03    3.7183551025e+02
    8.7247500196e-03    3.7187567139e+02
    8.7298499420e-03    3.7192050171e+02
    8.7346797809e-03    3.7195117188e+02
    8.7397797033e-03    3.7199523926e+02
    8.7448796257e-03    3.7202499390e+02
    8.7497103959e-03    3.7206262207e+02
    8.7548103184e-03    3.7209210205e+02
    8.7599102408e-03    3.7212326050e+02
    8.7647400796e-03    3.7215652466e+02
    8.7698400021e-03    3.7218231201e+02
    8.7746698409e-03    3.7221093750e+02
    8.7797697634e-03    3.7224838257e+02
    8.7848696858e-03    3.7229052734e+02
    8.7897004560e-03    3.7232153320e+02
    8.7948003784e-03    3.7236557007e+02
    8.7999003008e-03    3.7240014648e+02
    8.8047403842e-03    3.7244219971e+02
    8.8098403066e-03    3.7247882080e+02
    8.8146701455e-03    3.7252450562e+02
    8.8197700679e-03    3.7257330322e+02
    8.8248699903e-03    3.7261358643e+02
    8.8297100738e-03    3.7265170288e+02
    8.8348099962e-03    3.7270327759e+02
    8.8399099186e-03    3.7274487305e+02
    8.8447500020e-03    3.7279403687e+02
    8.8498499244e-03    3.7284396362e+02
    8.8546900079e-03    3.7288137817e+02
    8.8597899303e-03    3.7293637085e+02
    8.8648898527e-03    3.7298767090e+02
    8.8697299361e-03    3.7303594971e+02
    8.8748298585e-03    3.7309057617e+02
    8.8796699420e-03    3.7313983154e+02
    8.8847801089e-03    3.7319848633e+02
    8.8898800313e-03    3.7325643921e+02
    8.8947201148e-03    3.7331201172e+02
    8.8998200372e-03    3.7337573242e+02
    8.9046601206e-03    3.7343630981e+02
    8.9097702876e-03    3.7349746704e+02
    8.9148804545e-03    3.7356536865e+02
    8.9197102934e-03    3.7363259888e+02
    8.9248204604e-03    3.7369049072e+02
    8.9296596125e-03    3.7376422119e+02
    8.9347697794e-03    3.7383239746e+02
    8.9398799464e-03    3.7389520264e+02
    8.9447200298e-03    3.7396215820e+02
    8.9498301968e-03    3.7403768921e+02
    8.9546702802e-03    3.7410498047e+02
    8.9597804472e-03    3.7418453979e+02
    8.9648896828e-03    3.7426071167e+02
    8.9697297662e-03    3.7433087158e+02
    8.9748399332e-03    3.7441323853e+02
    8.9796800166e-03    3.7448947144e+02
    8.9847901836e-03    3.7457034302e+02
    8.9899003506e-03    3.7465667725e+02
    8.9947497472e-03    3.7473907471e+02
    8.9998599142e-03    3.7482473755e+02
    9.0046999976e-03    3.7491537476e+02
    9.0098101646e-03    3.7500119019e+02
    9.0149296448e-03    3.7509402466e+02
    9.0197697282e-03    3.7518228149e+02
    9.0248798952e-03    3.7527310181e+02
    9.0297302231e-03    3.7535540771e+02
    9.0348403901e-03    3.7545309448e+02
    9.0396897867e-03    3.7553494263e+02
    9.0447999537e-03    3.7563504028e+02
    9.0499203652e-03    3.7572604370e+02
    9.0547604486e-03    3.7581271362e+02
    9.0598799288e-03    3.7590179443e+02
    9.0647302568e-03    3.7598315430e+02
    9.0698404238e-03    3.7607870483e+02
    9.0746898204e-03    3.7615951538e+02
    9.0798102319e-03    3.7625003052e+02
    9.0849297121e-03    3.7634335327e+02
    9.0897697955e-03    3.7641897583e+02
    9.0948902071e-03    3.7650457764e+02
    9.0997396037e-03    3.7658505249e+02
    9.1048600152e-03    3.7666802979e+02
    9.1097103432e-03    3.7674502563e+02
    9.1148298234e-03    3.7682388306e+02
    9.1196801513e-03    3.7689413452e+02
    9.1247996315e-03    3.7697647095e+02
    9.1299200431e-03    3.7704901123e+02
    9.1347796842e-03    3.7711557007e+02
    9.1399000958e-03    3.7718798828e+02
    9.1447504237e-03    3.7725119019e+02
    9.1498699039e-03    3.7731927490e+02
    9.1547202319e-03    3.7737988281e+02
    9.1598397121e-03    3.7743838501e+02
    9.1646900401e-03    3.7749755859e+02
    9.1698197648e-03    3.7754968262e+02
    9.1749401763e-03    3.7759915161e+02
    9.1797895730e-03    3.7765036011e+02
    9.1849099845e-03    3.7770172119e+02
    9.1897603124e-03    3.7774520874e+02
    9.1948900372e-03    3.7779037476e+02
    9.1997403651e-03    3.7783135986e+02
    9.2048598453e-03    3.7787304688e+02
    9.2097101733e-03    3.7791360474e+02
    9.2148398980e-03    3.7794760132e+02
    9.2196902260e-03    3.7798199463e+02
    9.2248097062e-03    3.7801324463e+02
    9.2299403623e-03    3.7804583740e+02
    9.2347897589e-03    3.7808062744e+02
    9.2399101704e-03    3.7811956787e+02
    9.2447698116e-03    3.7815252686e+02
    9.2498902231e-03    3.7818280029e+02
    9.2547396198e-03    3.7821514893e+02
    9.2598702759e-03    3.7825186157e+02
    9.2647196725e-03    3.7829028320e+02
    9.2698503286e-03    3.7833160400e+02
    9.2746997252e-03    3.7836486816e+02
    9.2798303813e-03    3.7841305542e+02
    9.2846797779e-03    3.7844650269e+02
    9.2898104340e-03    3.7849258423e+02
    9.2949299142e-03    3.7853393555e+02
    9.2997895554e-03    3.7856448364e+02
    9.3049099669e-03    3.7861166382e+02
    9.3097696081e-03    3.7864624023e+02
    9.3149002641e-03    3.7869189453e+02
    9.3197496608e-03    3.7872521973e+02
    9.3248803169e-03    3.7877441406e+02
    9.3297399580e-03    3.7881546021e+02
    9.3348696828e-03    3.7886007690e+02
    9.3397200108e-03    3.7890509033e+02
    9.3448497355e-03    3.7895059204e+02
    9.3497103080e-03    3.7899307251e+02
    9.3548400328e-03    3.7904586792e+02
    9.3596996740e-03    3.7909893799e+02
    9.3648303300e-03    3.7915133667e+02
    9.3696899712e-03    3.7920401001e+02
    9.3748196959e-03    3.7926119995e+02
    9.3799503520e-03    3.7931530762e+02
    9.3848099932e-03    3.7937500000e+02
    9.3899397179e-03    3.7943338013e+02
    9.3948002905e-03    3.7949264526e+02
    9.3999300152e-03    3.7955316162e+02
    9.4047896564e-03    3.7962243652e+02
    9.4099203125e-03    3.7968167114e+02
    9.4147799537e-03    3.7975112915e+02
    9.4199199229e-03    3.7982144165e+02
    9.4247795641e-03    3.7988159180e+02
    9.4299102202e-03    3.7995886230e+02
    9.4347801059e-03    3.8003179932e+02
    9.4399098307e-03    3.8011013794e+02
    9.4447704032e-03    3.8018203735e+02
    9.4499103725e-03    3.8026315308e+02
    9.4547700137e-03    3.8034411621e+02
    9.4599099830e-03    3.8042059326e+02
    9.4647696242e-03    3.8050057983e+02
    9.4699095935e-03    3.8059042358e+02
    9.4747701660e-03    3.8066674805e+02
    9.4799101353e-03    3.8075155640e+02
    9.4847800210e-03    3.8084191895e+02
    9.4899097458e-03    3.8093035889e+02
    9.4947796315e-03    3.8101370239e+02
    9.4999196008e-03    3.8110519409e+02
    9.5047801733e-03    3.8119113159e+02
    9.5099201426e-03    3.8127752686e+02
    9.5147900283e-03    3.8137481689e+02
    9.5199299976e-03    3.8146215820e+02
    9.5247998834e-03    3.8155255127e+02
    9.5299398527e-03    3.8165197754e+02
    9.5348097384e-03    3.8174411011e+02
    9.5399497077e-03    3.8183584595e+02
    9.5448102802e-03    3.8192840576e+02
    9.5499502495e-03    3.8202493286e+02
    9.5548303798e-03    3.8211581421e+02
    9.5597002655e-03    3.8220388794e+02
    9.5648402348e-03    3.8230596924e+02
    9.5697101206e-03    3.8238815308e+02
    9.5748500898e-03    3.8248117065e+02
    9.5797199756e-03    3.8257000732e+02
    9.5848701894e-03    3.8265969849e+02
    9.5897400752e-03    3.8274227905e+02
    9.5948800445e-03    3.8282354736e+02
    9.5997601748e-03    3.8290750122e+02
    9.6049001440e-03    3.8299121094e+02
    9.6097802743e-03    3.8306155396e+02
    9.6149202436e-03    3.8314797974e+02
    9.6198003739e-03    3.8321527100e+02
    9.6249403432e-03    3.8329946899e+02
    9.6298195422e-03    3.8336578369e+02
    9.6346996725e-03    3.8343655396e+02
    9.6398396417e-03    3.8350213623e+02
    9.6447197720e-03    3.8356683350e+02
    9.6498699859e-03    3.8363012695e+02
    9.6547501162e-03    3.8369027710e+02
    9.6598900855e-03    3.8375607300e+02
    9.6647702157e-03    3.8380334473e+02
    9.6699204296e-03    3.8386175537e+02
    9.6747996286e-03    3.8391467285e+02
    9.6799498424e-03    3.8396286011e+02
    9.6848197281e-03    3.8400650024e+02
    9.6896998584e-03    3.8404861450e+02
    9.6948500723e-03    3.8409146118e+02
    9.6997302026e-03    3.8412918091e+02
    9.7048804164e-03    3.8416619873e+02
    9.7097503021e-03    3.8419940186e+02
    9.7148995847e-03    3.8423519897e+02
    9.7197797149e-03    3.8427520752e+02
    9.7249299288e-03    3.8430926514e+02
    9.7298100591e-03    3.8434234619e+02
    9.7349602729e-03    3.8437686157e+02
    9.7398404032e-03    3.8440759277e+02
    9.7447196022e-03    3.8443991089e+02
    9.7498698160e-03    3.8447430420e+02
    9.7547499463e-03    3.8451553345e+02
    9.7599001601e-03    3.8455590820e+02
    9.7647802904e-03    3.8459884644e+02
    9.7699295729e-03    3.8464114380e+02
    9.7748097032e-03    3.8468261719e+02
    9.7799701616e-03    3.8472811890e+02
    9.7848502919e-03    3.8476644897e+02
    9.7897304222e-03    3.8480090332e+02
    9.7948797047e-03    3.8484466553e+02
    9.7997598350e-03    3.8489318848e+02
    9.8049100488e-03    3.8493313599e+02
    9.8098004237e-03    3.8497946167e+02
    9.8149497062e-03    3.8502218628e+02
    9.8198298365e-03    3.8506396484e+02
    9.8247202113e-03    3.8511465454e+02
    9.8298704252e-03    3.8516354370e+02
    9.8347496241e-03    3.8520361328e+02
    9.8399100825e-03    3.8526000977e+02
    9.8447902128e-03    3.8531002808e+02
    9.8499497399e-03    3.8536627197e+02
    9.8548298702e-03    3.8541302490e+02
    9.8597202450e-03    3.8547280884e+02
    9.8648797721e-03    3.8553170776e+02
    9.8697599024e-03    3.8558706665e+02
    9.8749203607e-03    3.8564706421e+02
    9.8797995597e-03    3.8571322632e+02
    9.8849600181e-03    3.8577145386e+02
    9.8898503929e-03    3.8583508301e+02
    9.8947398365e-03    3.8589974976e+02
    9.8998900503e-03    3.8596673584e+02
    9.9047804251e-03    3.8603704834e+02
    9.9099399522e-03    3.8610974121e+02
    9.9148303270e-03    3.8617135620e+02
    9.9197197706e-03    3.8624313354e+02
    9.9248802289e-03    3.8631463623e+02
    9.9297696725e-03    3.8639196777e+02
    9.9349301308e-03    3.8646524048e+02
    9.9398195744e-03    3.8654318237e+02
    9.9449800327e-03    3.8662225342e+02
    9.9498704076e-03    3.8669476318e+02
    9.9547598511e-03    3.8677130127e+02
    9.9599203095e-03    3.8685610962e+02
    9.9648097530e-03    3.8693310547e+02
    9.9699804559e-03    3.8702026367e+02
    9.9748698995e-03    3.8710467529e+02
    9.9797602743e-03    3.8718154907e+02
    9.9849198014e-03    3.8727484131e+02
    9.9898204207e-03    3.8735430908e+02
    9.9949799478e-03    3.8744509888e+02
    9.9998703226e-03    3.8753039551e+02
endcurve
