Curveplot
LS-DYNA keyword deck by LS-PrePost
Time
Kinetic Energy
Component
Kinetic Energy #pts=101
* Minval=     0.0000000000e+00 at time=         0.0000000000
* Maxval=     8.6890095845e-03 at time=         0.0124998996
    0.0000000000e+00    0.0000000000e+00
    4.9999100156e-04    6.6643103480e-08
    9.9993601907e-04    8.4273500534e-07
    1.4998399420e-03    2.6897100724e-06
    1.9999700598e-03    3.9802498577e-06
    2.4997799192e-03    2.8481699701e-06
    2.9998300597e-03    7.4773902270e-07
    3.4998299088e-03    1.5513400342e-08
    3.9997901767e-03    7.9652897611e-09
    4.4999797828e-03    7.4433597774e-07
    4.9998499453e-03    3.0658300147e-06
    5.4999501444e-03    3.7058800899e-06
    5.9997299686e-03    1.3360399862e-06
    6.4997398295e-03    3.2089701563e-08
    6.9999899715e-03    1.9183699962e-08
    7.4999202043e-03    1.2712399666e-06
    7.9998001456e-03    3.8194298213e-06
    8.4999101236e-03    2.2994499886e-06
    8.9999902993e-03    1.0796699712e-07
    9.4997296110e-03    2.8803999612e-06
    9.9999699742e-03    4.4701698698e-07
    1.0499900207e-02    2.0911600132e-06
    1.0999900289e-02    6.5397498474e-06
    1.1499900371e-02    6.9206602348e-05
    1.1999900453e-02    2.7610998950e-04
    1.2499899603e-02    8.6890095845e-03
    1.2999800034e-02    6.9259398151e-04
    1.3499700464e-02    7.9235602170e-03
    1.3999899849e-02    4.3710399768e-04
    1.4499699697e-02    2.0417000633e-03
    1.4999800362e-02    6.3869198784e-03
    1.5499900095e-02    1.3322499581e-03
    1.5999799594e-02    3.9415099309e-06
    1.6499999911e-02    3.3025298762e-05
    1.6999900341e-02    4.3637200724e-04
    1.7499800771e-02    8.0403598258e-04
    1.7999900505e-02    6.7315902561e-04
    1.8500000238e-02    2.4618298630e-04
    1.8999999389e-02    8.5618803496e-06
    1.9499799237e-02    4.6482300604e-06
    1.9999800250e-02    5.9682602296e-04
    2.0499899983e-02    2.2600700613e-03
    2.0999899134e-02    5.9015798615e-04
    2.1499799564e-02    1.5512899836e-06
    2.1999899298e-02    1.4474700438e-03
    2.2499900311e-02    2.5158500648e-04
    2.2999899462e-02    2.3440300720e-04
    2.3499799892e-02    7.1066297824e-04
    2.3999800906e-02    1.3239200052e-04
    2.4499800056e-02    3.6353699397e-04
    2.4999899790e-02    5.7965097949e-04
    2.5499800220e-02    1.2249299743e-06
    2.5999799371e-02    7.9189997632e-04
    2.6499899104e-02    4.0177098708e-04
    2.6999900118e-02    1.8715600447e-07
    2.7499800548e-02    8.4774801508e-05
    2.7999900281e-02    5.7779502822e-04
    2.8499899432e-02    6.7124800989e-04
    2.8999799863e-02    3.7258700468e-04
    2.9500000179e-02    1.4918499801e-04
    2.9999999329e-02    6.1950100644e-05
    3.0499799177e-02    3.8897200284e-05
    3.0999800190e-02    4.7695499234e-05
    3.1499698758e-02    9.6322299214e-05
    3.1999800354e-02    2.1810499311e-04
    3.2499898225e-02    3.8276900887e-04
    3.2999899238e-02    4.2144799954e-04
    3.3499900252e-02    1.8255499890e-04
    3.3999901265e-02    6.0690699684e-06
    3.4499999136e-02    5.1636197895e-06
    3.4999798983e-02    2.3904400587e-04
    3.5499900579e-02    2.3798400071e-04
    3.5999901593e-02    3.6963299976e-07
    3.6499898881e-02    1.1578699923e-04
    3.6999799311e-02    1.9580200023e-04
    3.7499800324e-02    3.4556001083e-07
    3.7999998778e-02    2.7481498546e-04
    3.8499999791e-02    2.1797600311e-06
    3.8999900222e-02    2.0522800332e-04
    3.9499901235e-02    4.2917099563e-06
    3.9999801666e-02    2.1968000510e-04
    4.0499899536e-02    1.6107999556e-07
    4.0999900550e-02    2.2164300026e-04
    4.1499800980e-02    1.6687799871e-05
    4.1999898851e-02    2.8522199500e-05
    4.2499899864e-02    2.1447200561e-04
    4.3000001460e-02    1.1443799849e-05
    4.3499998748e-02    1.0783300240e-05
    4.3999899179e-02    1.9685899315e-04
    4.4500000775e-02    1.0299200221e-04
    4.4999901205e-02    2.5499900858e-06
    4.5499898493e-02    2.5291599741e-05
    4.5999899507e-02    2.0664400654e-04
    4.6499799937e-02    1.4461200044e-04
    4.6999901533e-02    1.1889300367e-05
    4.7499798238e-02    3.0062301084e-04
    4.8000000417e-02    6.7127803050e-05
    4.8500001431e-02    1.8160699983e-04
    4.8999998719e-02    2.8568800190e-04
    4.9499798566e-02    9.3672500225e-04
    4.9999900162e-02    5.3615897195e-04
endcurve
