 LS-DYNA keyword deck by LS-PrePost                                      
                         ls-dyna smp.123264 s           date 01/12/2018

 n o d a l   f o r c e/e n e r g y    o u t p u t  t=   2.82493E-07

 pressure boundary condition forces 

 nd#       1  xforce=   0.0000E+00   yforce=   0.0000E+00  zforce=   0.0000E+00   energy=   0.0000E+00
 nd#      11  xforce=   0.0000E+00   yforce=   0.0000E+00  zforce=   0.0000E+00   energy=   0.0000E+00
 nd#      23  xforce=   0.0000E+00   yforce=   0.0000E+00  zforce=   0.0000E+00   energy=   0.0000E+00
              xtotal=   0.0000E+00   ytotal=   0.0000E+00  ztotal=   0.0000E+00   etotal=   0.0000E+00

 n o d a l   f o r c e/e n e r g y    o u t p u t  t=   5.00273E-04

 pressure boundary condition forces 

 nd#       1  xforce=   0.3903E+01   yforce=   0.2500E+01  zforce=   0.0000E+00   energy=   0.2451E-02
 nd#      11  xforce=   0.2500E+01   yforce=   0.2500E+01  zforce=   0.0000E+00   energy=   0.1898E-03
 nd#      23  xforce=   0.2500E+01   yforce=   0.3903E+01  zforce=   0.0000E+00   energy=   0.2451E-02
              xtotal=   0.8904E+01   ytotal=   0.8904E+01  ztotal=   0.0000E+00   etotal=   0.5093E-02

 n o d a l   f o r c e/e n e r g y    o u t p u t  t=   1.00022E-03

 pressure boundary condition forces 

 nd#       1  xforce=   0.7815E+01   yforce=   0.5000E+01  zforce=   0.0000E+00   energy=   0.9854E-02
 nd#      11  xforce=   0.5002E+01   yforce=   0.5002E+01  zforce=   0.0000E+00   energy=   0.7609E-03
 nd#      23  xforce=   0.5000E+01   yforce=   0.7815E+01  zforce=   0.0000E+00   energy=   0.9854E-02
              xtotal=   0.1782E+02   ytotal=   0.1782E+02  ztotal=   0.0000E+00   etotal=   0.2047E-01

 n o d a l   f o r c e/e n e r g y    o u t p u t  t=   1.50012E-03

 pressure boundary condition forces 

 nd#       1  xforce=   0.1174E+02   yforce=   0.7499E+01  zforce=   0.0000E+00   energy=   0.2231E-01
 nd#      11  xforce=   0.7504E+01   yforce=   0.7504E+01  zforce=   0.0000E+00   energy=   0.1712E-02
 nd#      23  xforce=   0.7499E+01   yforce=   0.1174E+02  zforce=   0.0000E+00   energy=   0.2231E-01
              xtotal=   0.2675E+02   ytotal=   0.2675E+02  ztotal=   0.0000E+00   etotal=   0.4634E-01

 n o d a l   f o r c e/e n e r g y    o u t p u t  t=   2.00026E-03

 pressure boundary condition forces 

 nd#       1  xforce=   0.1569E+02   yforce=   0.1000E+02  zforce=   0.0000E+00   energy=   0.3992E-01
 nd#      11  xforce=   0.1001E+02   yforce=   0.1001E+02  zforce=   0.0000E+00   energy=   0.3040E-02
 nd#      23  xforce=   0.1000E+02   yforce=   0.1569E+02  zforce=   0.0000E+00   energy=   0.3992E-01
              xtotal=   0.3570E+02   ytotal=   0.3570E+02  ztotal=   0.0000E+00   etotal=   0.8288E-01

 n o d a l   f o r c e/e n e r g y    o u t p u t  t=   2.50006E-03

 pressure boundary condition forces 

 nd#       1  xforce=   0.1963E+02   yforce=   0.1250E+02  zforce=   0.0000E+00   energy=   0.6258E-01
 nd#      11  xforce=   0.1251E+02   yforce=   0.1251E+02  zforce=   0.0000E+00   energy=   0.4743E-02
 nd#      23  xforce=   0.1250E+02   yforce=   0.1963E+02  zforce=   0.0000E+00   energy=   0.6258E-01
              xtotal=   0.4464E+02   ytotal=   0.4464E+02  ztotal=   0.0000E+00   etotal=   0.1299E+00

 n o d a l   f o r c e/e n e r g y    o u t p u t  t=   3.00011E-03

 pressure boundary condition forces 

 nd#       1  xforce=   0.2355E+02   yforce=   0.1500E+02  zforce=   0.0000E+00   energy=   0.9011E-01
 nd#      11  xforce=   0.1502E+02   yforce=   0.1502E+02  zforce=   0.0000E+00   energy=   0.6819E-02
 nd#      23  xforce=   0.1500E+02   yforce=   0.2355E+02  zforce=   0.0000E+00   energy=   0.9011E-01
              xtotal=   0.5357E+02   ytotal=   0.5357E+02  ztotal=   0.0000E+00   etotal=   0.1870E+00

 n o d a l   f o r c e/e n e r g y    o u t p u t  t=   3.50011E-03

 pressure boundary condition forces 

 nd#       1  xforce=   0.2743E+02   yforce=   0.1750E+02  zforce=   0.0000E+00   energy=   0.1222E+00
 nd#      11  xforce=   0.1752E+02   yforce=   0.1752E+02  zforce=   0.0000E+00   energy=   0.9249E-02
 nd#      23  xforce=   0.1750E+02   yforce=   0.2743E+02  zforce=   0.0000E+00   energy=   0.1222E+00
              xtotal=   0.6245E+02   ytotal=   0.6245E+02  ztotal=   0.0000E+00   etotal=   0.2537E+00

 n o d a l   f o r c e/e n e r g y    o u t p u t  t=   4.00007E-03

 pressure boundary condition forces 

 nd#       1  xforce=   0.3129E+02   yforce=   0.2000E+02  zforce=   0.0000E+00   energy=   0.1590E+00
 nd#      11  xforce=   0.2003E+02   yforce=   0.2003E+02  zforce=   0.0000E+00   energy=   0.1203E-01
 nd#      23  xforce=   0.2000E+02   yforce=   0.3129E+02  zforce=   0.0000E+00   energy=   0.1590E+00
              xtotal=   0.7132E+02   ytotal=   0.7132E+02  ztotal=   0.0000E+00   etotal=   0.3301E+00

 n o d a l   f o r c e/e n e r g y    o u t p u t  t=   4.50026E-03

 pressure boundary condition forces 

 nd#       1  xforce=   0.3516E+02   yforce=   0.2250E+02  zforce=   0.0000E+00   energy=   0.2009E+00
 nd#      11  xforce=   0.2254E+02   yforce=   0.2254E+02  zforce=   0.0000E+00   energy=   0.1520E-01
 nd#      23  xforce=   0.2250E+02   yforce=   0.3516E+02  zforce=   0.0000E+00   energy=   0.2009E+00
              xtotal=   0.8020E+02   ytotal=   0.8020E+02  ztotal=   0.0000E+00   etotal=   0.4169E+00

 n o d a l   f o r c e/e n e r g y    o u t p u t  t=   5.00013E-03

 pressure boundary condition forces 

 nd#       1  xforce=   0.3906E+02   yforce=   0.2500E+02  zforce=   0.0000E+00   energy=   0.2481E+00
 nd#      11  xforce=   0.2505E+02   yforce=   0.2505E+02  zforce=   0.0000E+00   energy=   0.1872E-01
 nd#      23  xforce=   0.2500E+02   yforce=   0.3906E+02  zforce=   0.0000E+00   energy=   0.2481E+00
              xtotal=   0.8911E+02   ytotal=   0.8911E+02  ztotal=   0.0000E+00   etotal=   0.5150E+00

 n o d a l   f o r c e/e n e r g y    o u t p u t  t=   5.50023E-03

 pressure boundary condition forces 

 nd#       1  xforce=   0.4298E+02   yforce=   0.2750E+02  zforce=   0.0000E+00   energy=   0.3009E+00
 nd#      11  xforce=   0.2756E+02   yforce=   0.2756E+02  zforce=   0.0000E+00   energy=   0.2260E-01
 nd#      23  xforce=   0.2750E+02   yforce=   0.4298E+02  zforce=   0.0000E+00   energy=   0.3009E+00
              xtotal=   0.9804E+02   ytotal=   0.9804E+02  ztotal=   0.0000E+00   etotal=   0.6244E+00

 n o d a l   f o r c e/e n e r g y    o u t p u t  t=   6.00001E-03

 pressure boundary condition forces 

 nd#       1  xforce=   0.4688E+02   yforce=   0.3000E+02  zforce=   0.0000E+00   energy=   0.3583E+00
 nd#      11  xforce=   0.3007E+02   yforce=   0.3007E+02  zforce=   0.0000E+00   energy=   0.2685E-01
 nd#      23  xforce=   0.3000E+02   yforce=   0.4688E+02  zforce=   0.0000E+00   energy=   0.3583E+00
              xtotal=   0.1070E+03   ytotal=   0.1070E+03  ztotal=   0.0000E+00   etotal=   0.7434E+00

 n o d a l   f o r c e/e n e r g y    o u t p u t  t=   6.50002E-03

 pressure boundary condition forces 

 nd#       1  xforce=   0.5074E+02   yforce=   0.3250E+02  zforce=   0.0000E+00   energy=   0.4198E+00
 nd#      11  xforce=   0.3258E+02   yforce=   0.3258E+02  zforce=   0.0000E+00   energy=   0.3143E-01
 nd#      23  xforce=   0.3250E+02   yforce=   0.5074E+02  zforce=   0.0000E+00   energy=   0.4198E+00
              xtotal=   0.1158E+03   ytotal=   0.1158E+03  ztotal=   0.0000E+00   etotal=   0.8710E+00

 n o d a l   f o r c e/e n e r g y    o u t p u t  t=   7.00028E-03

 pressure boundary condition forces 

 nd#       1  xforce=   0.5456E+02   yforce=   0.3500E+02  zforce=   0.0000E+00   energy=   0.4855E+00
 nd#      11  xforce=   0.3510E+02   yforce=   0.3510E+02  zforce=   0.0000E+00   energy=   0.3633E-01
 nd#      23  xforce=   0.3500E+02   yforce=   0.5456E+02  zforce=   0.0000E+00   energy=   0.4855E+00
              xtotal=   0.1247E+03   ytotal=   0.1247E+03  ztotal=   0.0000E+00   etotal=   0.1007E+01

 n o d a l   f o r c e/e n e r g y    o u t p u t  t=   7.50020E-03

 pressure boundary condition forces 

 nd#       1  xforce=   0.5840E+02   yforce=   0.3750E+02  zforce=   0.0000E+00   energy=   0.5566E+00
 nd#      11  xforce=   0.3761E+02   yforce=   0.3761E+02  zforce=   0.0000E+00   energy=   0.4160E-01
 nd#      23  xforce=   0.3750E+02   yforce=   0.5840E+02  zforce=   0.0000E+00   energy=   0.5566E+00
              xtotal=   0.1335E+03   ytotal=   0.1335E+03  ztotal=   0.0000E+00   etotal=   0.1155E+01

 n o d a l   f o r c e/e n e r g y    o u t p u t  t=   8.00008E-03

 pressure boundary condition forces 

 nd#       1  xforce=   0.6229E+02   yforce=   0.4000E+02  zforce=   0.0000E+00   energy=   0.6338E+00
 nd#      11  xforce=   0.4013E+02   yforce=   0.4013E+02  zforce=   0.0000E+00   energy=   0.4723E-01
 nd#      23  xforce=   0.4000E+02   yforce=   0.6229E+02  zforce=   0.0000E+00   energy=   0.6338E+00
              xtotal=   0.1424E+03   ytotal=   0.1424E+03  ztotal=   0.0000E+00   etotal=   0.1315E+01

 n o d a l   f o r c e/e n e r g y    o u t p u t  t=   8.50020E-03

 pressure boundary condition forces 

 nd#       1  xforce=   0.6618E+02   yforce=   0.4250E+02  zforce=   0.0000E+00   energy=   0.7163E+00
 nd#      11  xforce=   0.4264E+02   yforce=   0.4264E+02  zforce=   0.0000E+00   energy=   0.5321E-01
 nd#      23  xforce=   0.4250E+02   yforce=   0.6618E+02  zforce=   0.0000E+00   energy=   0.7163E+00
              xtotal=   0.1513E+03   ytotal=   0.1513E+03  ztotal=   0.0000E+00   etotal=   0.1486E+01

 n o d a l   f o r c e/e n e r g y    o u t p u t  t=   9.00027E-03

 pressure boundary condition forces 

 nd#       1  xforce=   0.7003E+02   yforce=   0.4501E+02  zforce=   0.0000E+00   energy=   0.8023E+00
 nd#      11  xforce=   0.4516E+02   yforce=   0.4516E+02  zforce=   0.0000E+00   energy=   0.5951E-01
 nd#      23  xforce=   0.4501E+02   yforce=   0.7003E+02  zforce=   0.0000E+00   energy=   0.8023E+00
              xtotal=   0.1602E+03   ytotal=   0.1602E+03  ztotal=   0.0000E+00   etotal=   0.1664E+01

 n o d a l   f o r c e/e n e r g y    o u t p u t  t=   9.50001E-03

 pressure boundary condition forces 

 nd#       1  xforce=   0.7357E+02   yforce=   0.4751E+02  zforce=   0.0000E+00   energy=   0.9056E+00
 nd#      11  xforce=   0.4768E+02   yforce=   0.4768E+02  zforce=   0.0000E+00   energy=   0.6750E-01
 nd#      23  xforce=   0.4751E+02   yforce=   0.7357E+02  zforce=   0.0000E+00   energy=   0.9056E+00
              xtotal=   0.1688E+03   ytotal=   0.1688E+03  ztotal=   0.0000E+00   etotal=   0.1879E+01

 n o d a l   f o r c e/e n e r g y    o u t p u t  t=   1.00002E-02

 pressure boundary condition forces 

 nd#       1  xforce=   0.7678E+02   yforce=   0.5001E+02  zforce=   0.0000E+00   energy=   0.1022E+01
 nd#      11  xforce=   0.5020E+02   yforce=   0.5020E+02  zforce=   0.0000E+00   energy=   0.7704E-01
 nd#      23  xforce=   0.5001E+02   yforce=   0.7678E+02  zforce=   0.0000E+00   energy=   0.1022E+01
              xtotal=   0.1770E+03   ytotal=   0.1770E+03  ztotal=   0.0000E+00   etotal=   0.2122E+01

 n o d a l   f o r c e/e n e r g y    o u t p u t  t=   1.05001E-02

 pressure boundary condition forces 

 nd#       1  xforce=   0.8026E+02   yforce=   0.5251E+02  zforce=   0.0000E+00   energy=   0.1164E+01
 nd#      11  xforce=   0.5273E+02   yforce=   0.5273E+02  zforce=   0.0000E+00   energy=   0.8914E-01
 nd#      23  xforce=   0.5251E+02   yforce=   0.8026E+02  zforce=   0.0000E+00   energy=   0.1164E+01
              xtotal=   0.1855E+03   ytotal=   0.1855E+03  ztotal=   0.0000E+00   etotal=   0.2417E+01

 n o d a l   f o r c e/e n e r g y    o u t p u t  t=   1.10002E-02

 pressure boundary condition forces 

 nd#       1  xforce=   0.8111E+02   yforce=   0.5501E+02  zforce=   0.0000E+00   energy=   0.1468E+01
 nd#      11  xforce=   0.5527E+02   yforce=   0.5527E+02  zforce=   0.0000E+00   energy=   0.1141E+00
 nd#      23  xforce=   0.5501E+02   yforce=   0.8111E+02  zforce=   0.0000E+00   energy=   0.1468E+01
              xtotal=   0.1914E+03   ytotal=   0.1914E+03  ztotal=   0.0000E+00   etotal=   0.3051E+01

 n o d a l   f o r c e/e n e r g y    o u t p u t  t=   1.15002E-02

 pressure boundary condition forces 

 nd#       1  xforce=   0.8106E+02   yforce=   0.5751E+02  zforce=   0.0000E+00   energy=   0.2081E+01
 nd#      11  xforce=   0.5784E+02   yforce=   0.5784E+02  zforce=   0.0000E+00   energy=   0.1521E+00
 nd#      23  xforce=   0.5751E+02   yforce=   0.8106E+02  zforce=   0.0000E+00   energy=   0.2081E+01
              xtotal=   0.1964E+03   ytotal=   0.1964E+03  ztotal=   0.0000E+00   etotal=   0.4314E+01

 n o d a l   f o r c e/e n e r g y    o u t p u t  t=   1.20002E-02

 pressure boundary condition forces 

 nd#       1  xforce=   0.8318E+02   yforce=   0.6002E+02  zforce=   0.0000E+00   energy=   0.3897E+01
 nd#      11  xforce=   0.6054E+02   yforce=   0.6054E+02  zforce=   0.0000E+00   energy=   0.2623E+00
 nd#      23  xforce=   0.6002E+02   yforce=   0.8318E+02  zforce=   0.0000E+00   energy=   0.3897E+01
              xtotal=   0.2037E+03   ytotal=   0.2037E+03  ztotal=   0.0000E+00   etotal=   0.8057E+01

 n o d a l   f o r c e/e n e r g y    o u t p u t  t=   1.25002E-02

 pressure boundary condition forces 

 nd#       1  xforce=   0.8266E+02   yforce=   0.6253E+02  zforce=   0.0000E+00   energy=   0.1130E+02
 nd#      11  xforce=   0.6382E+02   yforce=   0.6382E+02  zforce=   0.0000E+00   energy=   0.4831E+00
 nd#      23  xforce=   0.6253E+02   yforce=   0.8267E+02  zforce=   0.0000E+00   energy=   0.1130E+02
              xtotal=   0.2090E+03   ytotal=   0.2090E+03  ztotal=   0.0000E+00   etotal=   0.2309E+02

 n o d a l   f o r c e/e n e r g y    o u t p u t  t=   1.30001E-02

 pressure boundary condition forces 

 nd#       1  xforce=   0.8182E+02   yforce=   0.6503E+02  zforce=   0.0000E+00   energy=   0.1995E+02
 nd#      11  xforce=   0.6725E+02   yforce=   0.6725E+02  zforce=   0.0000E+00   energy=   0.5342E+00
 nd#      23  xforce=   0.6503E+02   yforce=   0.8182E+02  zforce=   0.0000E+00   energy=   0.1995E+02
              xtotal=   0.2141E+03   ytotal=   0.2141E+03  ztotal=   0.0000E+00   etotal=   0.4043E+02

 n o d a l   f o r c e/e n e r g y    o u t p u t  t=   1.35000E-02

 pressure boundary condition forces 

 nd#       1  xforce=   0.8080E+02   yforce=   0.6753E+02  zforce=   0.0000E+00   energy=   0.2771E+02
 nd#      11  xforce=   0.7063E+02   yforce=   0.7063E+02  zforce=   0.0000E+00   energy=   0.4062E+00
 nd#      23  xforce=   0.6753E+02   yforce=   0.8080E+02  zforce=   0.0000E+00   energy=   0.2771E+02
              xtotal=   0.2190E+03   ytotal=   0.2190E+03  ztotal=   0.0000E+00   etotal=   0.5583E+02

 n o d a l   f o r c e/e n e r g y    o u t p u t  t=   1.40002E-02

 pressure boundary condition forces 

 nd#       1  xforce=   0.7961E+02   yforce=   0.7002E+02  zforce=   0.0000E+00   energy=   0.3519E+02
 nd#      11  xforce=   0.7401E+02   yforce=   0.7401E+02  zforce=   0.0000E+00   energy=   0.1288E+00
 nd#      23  xforce=   0.7002E+02   yforce=   0.7961E+02  zforce=   0.0000E+00   energy=   0.3519E+02
              xtotal=   0.2236E+03   ytotal=   0.2236E+03  ztotal=   0.0000E+00   etotal=   0.7050E+02

 n o d a l   f o r c e/e n e r g y    o u t p u t  t=   1.45000E-02

 pressure boundary condition forces 

 nd#       1  xforce=   0.7821E+02   yforce=   0.7249E+02  zforce=   0.0000E+00   energy=   0.4355E+02
 nd#      11  xforce=   0.7750E+02   yforce=   0.7750E+02  zforce=   0.0000E+00   energy=  -0.3626E+00
 nd#      23  xforce=   0.7249E+02   yforce=   0.7820E+02  zforce=   0.0000E+00   energy=   0.4355E+02
              xtotal=   0.2282E+03   ytotal=   0.2282E+03  ztotal=   0.0000E+00   etotal=   0.8673E+02

 n o d a l   f o r c e/e n e r g y    o u t p u t  t=   1.50000E-02

 pressure boundary condition forces 

 nd#       1  xforce=   0.7677E+02   yforce=   0.7497E+02  zforce=   0.0000E+00   energy=   0.5019E+02
 nd#      11  xforce=   0.8085E+02   yforce=   0.8085E+02  zforce=   0.0000E+00   energy=  -0.8848E+00
 nd#      23  xforce=   0.7497E+02   yforce=   0.7677E+02  zforce=   0.0000E+00   energy=   0.5019E+02
              xtotal=   0.2326E+03   ytotal=   0.2326E+03  ztotal=   0.0000E+00   etotal=   0.9950E+02

 n o d a l   f o r c e/e n e r g y    o u t p u t  t=   1.55002E-02

 pressure boundary condition forces 

 nd#       1  xforce=   0.7519E+02   yforce=   0.7744E+02  zforce=   0.0000E+00   energy=   0.5682E+02
 nd#      11  xforce=   0.8422E+02   yforce=   0.8422E+02  zforce=   0.0000E+00   energy=  -0.1525E+01
 nd#      23  xforce=   0.7744E+02   yforce=   0.7519E+02  zforce=   0.0000E+00   energy=   0.5682E+02
              xtotal=   0.2368E+03   ytotal=   0.2368E+03  ztotal=   0.0000E+00   etotal=   0.1121E+03

 n o d a l   f o r c e/e n e r g y    o u t p u t  t=   1.60001E-02

 pressure boundary condition forces 

 nd#       1  xforce=   0.7341E+02   yforce=   0.7990E+02  zforce=   0.0000E+00   energy=   0.6412E+02
 nd#      11  xforce=   0.8768E+02   yforce=   0.8768E+02  zforce=   0.0000E+00   energy=  -0.2370E+01
 nd#      23  xforce=   0.7990E+02   yforce=   0.7341E+02  zforce=   0.0000E+00   energy=   0.6412E+02
              xtotal=   0.2410E+03   ytotal=   0.2410E+03  ztotal=   0.0000E+00   etotal=   0.1259E+03

 n o d a l   f o r c e/e n e r g y    o u t p u t  t=   1.65002E-02

 pressure boundary condition forces 

 nd#       1  xforce=   0.7151E+02   yforce=   0.8235E+02  zforce=   0.0000E+00   energy=   0.7130E+02
 nd#      11  xforce=   0.9115E+02   yforce=   0.9115E+02  zforce=   0.0000E+00   energy=  -0.3345E+01
 nd#      23  xforce=   0.8235E+02   yforce=   0.7151E+02  zforce=   0.0000E+00   energy=   0.7130E+02
              xtotal=   0.2450E+03   ytotal=   0.2450E+03  ztotal=   0.0000E+00   etotal=   0.1392E+03

 n o d a l   f o r c e/e n e r g y    o u t p u t  t=   1.70002E-02

 pressure boundary condition forces 

 nd#       1  xforce=   0.6950E+02   yforce=   0.8480E+02  zforce=   0.0000E+00   energy=   0.7799E+02
 nd#      11  xforce=   0.9459E+02   yforce=   0.9459E+02  zforce=   0.0000E+00   energy=  -0.4382E+01
 nd#      23  xforce=   0.8480E+02   yforce=   0.6949E+02  zforce=   0.0000E+00   energy=   0.7799E+02
              xtotal=   0.2489E+03   ytotal=   0.2489E+03  ztotal=   0.0000E+00   etotal=   0.1516E+03

 n o d a l   f o r c e/e n e r g y    o u t p u t  t=   1.75000E-02

 pressure boundary condition forces 

 nd#       1  xforce=   0.6744E+02   yforce=   0.8724E+02  zforce=   0.0000E+00   energy=   0.8436E+02
 nd#      11  xforce=   0.9802E+02   yforce=   0.9802E+02  zforce=   0.0000E+00   energy=  -0.5482E+01
 nd#      23  xforce=   0.8724E+02   yforce=   0.6744E+02  zforce=   0.0000E+00   energy=   0.8436E+02
              xtotal=   0.2527E+03   ytotal=   0.2527E+03  ztotal=   0.0000E+00   etotal=   0.1632E+03

 n o d a l   f o r c e/e n e r g y    o u t p u t  t=   1.80002E-02

 pressure boundary condition forces 

 nd#       1  xforce=   0.6522E+02   yforce=   0.8968E+02  zforce=   0.0000E+00   energy=   0.9053E+02
 nd#      11  xforce=   0.1014E+03   yforce=   0.1014E+03  zforce=   0.0000E+00   energy=  -0.6655E+01
 nd#      23  xforce=   0.8968E+02   yforce=   0.6522E+02  zforce=   0.0000E+00   energy=   0.9053E+02
              xtotal=   0.2564E+03   ytotal=   0.2564E+03  ztotal=   0.0000E+00   etotal=   0.1744E+03

 n o d a l   f o r c e/e n e r g y    o u t p u t  t=   1.85002E-02

 pressure boundary condition forces 

 nd#       1  xforce=   0.6299E+02   yforce=   0.9212E+02  zforce=   0.0000E+00   energy=   0.9651E+02
 nd#      11  xforce=   0.1049E+03   yforce=   0.1049E+03  zforce=   0.0000E+00   energy=  -0.7892E+01
 nd#      23  xforce=   0.9212E+02   yforce=   0.6299E+02  zforce=   0.0000E+00   energy=   0.9651E+02
              xtotal=   0.2600E+03   ytotal=   0.2600E+03  ztotal=   0.0000E+00   etotal=   0.1851E+03

 n o d a l   f o r c e/e n e r g y    o u t p u t  t=   1.90002E-02

 pressure boundary condition forces 

 nd#       1  xforce=   0.6066E+02   yforce=   0.9455E+02  zforce=   0.0000E+00   energy=   0.1022E+03
 nd#      11  xforce=   0.1083E+03   yforce=   0.1083E+03  zforce=   0.0000E+00   energy=  -0.9163E+01
 nd#      23  xforce=   0.9455E+02   yforce=   0.6066E+02  zforce=   0.0000E+00   energy=   0.1022E+03
              xtotal=   0.2635E+03   ytotal=   0.2635E+03  ztotal=   0.0000E+00   etotal=   0.1953E+03

 n o d a l   f o r c e/e n e r g y    o u t p u t  t=   1.95001E-02

 pressure boundary condition forces 

 nd#       1  xforce=   0.5824E+02   yforce=   0.9698E+02  zforce=   0.0000E+00   energy=   0.1076E+03
 nd#      11  xforce=   0.1117E+03   yforce=   0.1117E+03  zforce=   0.0000E+00   energy=  -0.1045E+02
 nd#      23  xforce=   0.9698E+02   yforce=   0.5824E+02  zforce=   0.0000E+00   energy=   0.1076E+03
              xtotal=   0.2669E+03   ytotal=   0.2669E+03  ztotal=   0.0000E+00   etotal=   0.2048E+03

 n o d a l   f o r c e/e n e r g y    o u t p u t  t=   2.00001E-02

 pressure boundary condition forces 

 nd#       1  xforce=   0.5576E+02   yforce=   0.9941E+02  zforce=   0.0000E+00   energy=   0.1130E+03
 nd#      11  xforce=   0.1151E+03   yforce=   0.1151E+03  zforce=   0.0000E+00   energy=  -0.1181E+02
 nd#      23  xforce=   0.9941E+02   yforce=   0.5576E+02  zforce=   0.0000E+00   energy=   0.1130E+03
              xtotal=   0.2703E+03   ytotal=   0.2703E+03  ztotal=   0.0000E+00   etotal=   0.2142E+03

 n o d a l   f o r c e/e n e r g y    o u t p u t  t=   2.05001E-02

 pressure boundary condition forces 

 nd#       1  xforce=   0.5312E+02   yforce=   0.1018E+03  zforce=   0.0000E+00   energy=   0.1189E+03
 nd#      11  xforce=   0.1186E+03   yforce=   0.1186E+03  zforce=   0.0000E+00   energy=  -0.1337E+02
 nd#      23  xforce=   0.1018E+03   yforce=   0.5313E+02  zforce=   0.0000E+00   energy=   0.1189E+03
              xtotal=   0.2735E+03   ytotal=   0.2735E+03  ztotal=   0.0000E+00   etotal=   0.2244E+03

 n o d a l   f o r c e/e n e r g y    o u t p u t  t=   2.10002E-02

 pressure boundary condition forces 

 nd#       1  xforce=   0.5039E+02   yforce=   0.1042E+03  zforce=   0.0000E+00   energy=   0.1248E+03
 nd#      11  xforce=   0.1221E+03   yforce=   0.1221E+03  zforce=   0.0000E+00   energy=  -0.1501E+02
 nd#      23  xforce=   0.1042E+03   yforce=   0.5039E+02  zforce=   0.0000E+00   energy=   0.1248E+03
              xtotal=   0.2767E+03   ytotal=   0.2767E+03  ztotal=   0.0000E+00   etotal=   0.2345E+03

 n o d a l   f o r c e/e n e r g y    o u t p u t  t=   2.15000E-02

 pressure boundary condition forces 

 nd#       1  xforce=   0.4774E+02   yforce=   0.1067E+03  zforce=   0.0000E+00   energy=   0.1296E+03
 nd#      11  xforce=   0.1255E+03   yforce=   0.1255E+03  zforce=   0.0000E+00   energy=  -0.1641E+02
 nd#      23  xforce=   0.1067E+03   yforce=   0.4774E+02  zforce=   0.0000E+00   energy=   0.1296E+03
              xtotal=   0.2799E+03   ytotal=   0.2799E+03  ztotal=   0.0000E+00   etotal=   0.2429E+03

 n o d a l   f o r c e/e n e r g y    o u t p u t  t=   2.20001E-02

 pressure boundary condition forces 

 nd#       1  xforce=   0.4500E+02   yforce=   0.1091E+03  zforce=   0.0000E+00   energy=   0.1348E+03
 nd#      11  xforce=   0.1289E+03   yforce=   0.1289E+03  zforce=   0.0000E+00   energy=  -0.1795E+02
 nd#      23  xforce=   0.1091E+03   yforce=   0.4500E+02  zforce=   0.0000E+00   energy=   0.1348E+03
              xtotal=   0.2830E+03   ytotal=   0.2830E+03  ztotal=   0.0000E+00   etotal=   0.2517E+03

 n o d a l   f o r c e/e n e r g y    o u t p u t  t=   2.25001E-02

 pressure boundary condition forces 

 nd#       1  xforce=   0.4208E+02   yforce=   0.1115E+03  zforce=   0.0000E+00   energy=   0.1405E+03
 nd#      11  xforce=   0.1324E+03   yforce=   0.1324E+03  zforce=   0.0000E+00   energy=  -0.1974E+02
 nd#      23  xforce=   0.1115E+03   yforce=   0.4208E+02  zforce=   0.0000E+00   energy=   0.1405E+03
              xtotal=   0.2860E+03   ytotal=   0.2860E+03  ztotal=   0.0000E+00   etotal=   0.2613E+03

 n o d a l   f o r c e/e n e r g y    o u t p u t  t=   2.30002E-02

 pressure boundary condition forces 

 nd#       1  xforce=   0.3925E+02   yforce=   0.1139E+03  zforce=   0.0000E+00   energy=   0.1450E+03
 nd#      11  xforce=   0.1358E+03   yforce=   0.1358E+03  zforce=   0.0000E+00   energy=  -0.2116E+02
 nd#      23  xforce=   0.1139E+03   yforce=   0.3925E+02  zforce=   0.0000E+00   energy=   0.1450E+03
              xtotal=   0.2890E+03   ytotal=   0.2890E+03  ztotal=   0.0000E+00   etotal=   0.2688E+03

 n o d a l   f o r c e/e n e r g y    o u t p u t  t=   2.35001E-02

 pressure boundary condition forces 

 nd#       1  xforce=   0.3622E+02   yforce=   0.1163E+03  zforce=   0.0000E+00   energy=   0.1506E+03
 nd#      11  xforce=   0.1394E+03   yforce=   0.1394E+03  zforce=   0.0000E+00   energy=  -0.2304E+02
 nd#      23  xforce=   0.1163E+03   yforce=   0.3622E+02  zforce=   0.0000E+00   energy=   0.1506E+03
              xtotal=   0.2919E+03   ytotal=   0.2919E+03  ztotal=   0.0000E+00   etotal=   0.2782E+03

 n o d a l   f o r c e/e n e r g y    o u t p u t  t=   2.40001E-02

 pressure boundary condition forces 

 nd#       1  xforce=   0.3328E+02   yforce=   0.1187E+03  zforce=   0.0000E+00   energy=   0.1550E+03
 nd#      11  xforce=   0.1428E+03   yforce=   0.1428E+03  zforce=   0.0000E+00   energy=  -0.2453E+02
 nd#      23  xforce=   0.1187E+03   yforce=   0.3328E+02  zforce=   0.0000E+00   energy=   0.1550E+03
              xtotal=   0.2947E+03   ytotal=   0.2947E+03  ztotal=   0.0000E+00   etotal=   0.2854E+03

 n o d a l   f o r c e/e n e r g y    o u t p u t  t=   2.45000E-02

 pressure boundary condition forces 

 nd#       1  xforce=   0.3011E+02   yforce=   0.1211E+03  zforce=   0.0000E+00   energy=   0.1604E+03
 nd#      11  xforce=   0.1463E+03   yforce=   0.1463E+03  zforce=   0.0000E+00   energy=  -0.2646E+02
 nd#      23  xforce=   0.1211E+03   yforce=   0.3011E+02  zforce=   0.0000E+00   energy=   0.1604E+03
              xtotal=   0.2975E+03   ytotal=   0.2975E+03  ztotal=   0.0000E+00   etotal=   0.2944E+03

 n o d a l   f o r c e/e n e r g y    o u t p u t  t=   2.50002E-02

 pressure boundary condition forces 

 nd#       1  xforce=   0.2708E+02   yforce=   0.1235E+03  zforce=   0.0000E+00   energy=   0.1646E+03
 nd#      11  xforce=   0.1497E+03   yforce=   0.1497E+03  zforce=   0.0000E+00   energy=  -0.2799E+02
 nd#      23  xforce=   0.1235E+03   yforce=   0.2708E+02  zforce=   0.0000E+00   energy=   0.1646E+03
              xtotal=   0.3003E+03   ytotal=   0.3003E+03  ztotal=   0.0000E+00   etotal=   0.3013E+03

 n o d a l   f o r c e/e n e r g y    o u t p u t  t=   2.55001E-02

 pressure boundary condition forces 

 nd#       1  xforce=   0.2387E+02   yforce=   0.1259E+03  zforce=   0.0000E+00   energy=   0.1697E+03
 nd#      11  xforce=   0.1532E+03   yforce=   0.1532E+03  zforce=   0.0000E+00   energy=  -0.2989E+02
 nd#      23  xforce=   0.1259E+03   yforce=   0.2387E+02  zforce=   0.0000E+00   energy=   0.1697E+03
              xtotal=   0.3030E+03   ytotal=   0.3030E+03  ztotal=   0.0000E+00   etotal=   0.3095E+03

 n o d a l   f o r c e/e n e r g y    o u t p u t  t=   2.60001E-02

 pressure boundary condition forces 

 nd#       1  xforce=   0.2063E+02   yforce=   0.1283E+03  zforce=   0.0000E+00   energy=   0.1744E+03
 nd#      11  xforce=   0.1567E+03   yforce=   0.1567E+03  zforce=   0.0000E+00   energy=  -0.3170E+02
 nd#      23  xforce=   0.1283E+03   yforce=   0.2063E+02  zforce=   0.0000E+00   energy=   0.1744E+03
              xtotal=   0.3056E+03   ytotal=   0.3056E+03  ztotal=   0.0000E+00   etotal=   0.3171E+03

 n o d a l   f o r c e/e n e r g y    o u t p u t  t=   2.65001E-02

 pressure boundary condition forces 

 nd#       1  xforce=   0.1741E+02   yforce=   0.1307E+03  zforce=   0.0000E+00   energy=   0.1785E+03
 nd#      11  xforce=   0.1601E+03   yforce=   0.1601E+03  zforce=   0.0000E+00   energy=  -0.3333E+02
 nd#      23  xforce=   0.1307E+03   yforce=   0.1741E+02  zforce=   0.0000E+00   energy=   0.1785E+03
              xtotal=   0.3082E+03   ytotal=   0.3082E+03  ztotal=   0.0000E+00   etotal=   0.3237E+03

 n o d a l   f o r c e/e n e r g y    o u t p u t  t=   2.70001E-02

 pressure boundary condition forces 

 nd#       1  xforce=   0.1407E+02   yforce=   0.1331E+03  zforce=   0.0000E+00   energy=   0.1832E+03
 nd#      11  xforce=   0.1636E+03   yforce=   0.1636E+03  zforce=   0.0000E+00   energy=  -0.3522E+02
 nd#      23  xforce=   0.1331E+03   yforce=   0.1407E+02  zforce=   0.0000E+00   energy=   0.1832E+03
              xtotal=   0.3108E+03   ytotal=   0.3108E+03  ztotal=   0.0000E+00   etotal=   0.3312E+03

 n o d a l   f o r c e/e n e r g y    o u t p u t  t=   2.75000E-02

 pressure boundary condition forces 

 nd#       1  xforce=   0.1066E+02   yforce=   0.1354E+03  zforce=   0.0000E+00   energy=   0.1879E+03
 nd#      11  xforce=   0.1672E+03   yforce=   0.1672E+03  zforce=   0.0000E+00   energy=  -0.3717E+02
 nd#      23  xforce=   0.1354E+03   yforce=   0.1066E+02  zforce=   0.0000E+00   energy=   0.1879E+03
              xtotal=   0.3133E+03   ytotal=   0.3133E+03  ztotal=   0.0000E+00   etotal=   0.3387E+03

 n o d a l   f o r c e/e n e r g y    o u t p u t  t=   2.80001E-02

 pressure boundary condition forces 

 nd#       1  xforce=   0.7256E+01   yforce=   0.1378E+03  zforce=   0.0000E+00   energy=   0.1922E+03
 nd#      11  xforce=   0.1706E+03   yforce=   0.1706E+03  zforce=   0.0000E+00   energy=  -0.3899E+02
 nd#      23  xforce=   0.1378E+03   yforce=   0.7256E+01  zforce=   0.0000E+00   energy=   0.1922E+03
              xtotal=   0.3157E+03   ytotal=   0.3157E+03  ztotal=   0.0000E+00   etotal=   0.3454E+03

 n o d a l   f o r c e/e n e r g y    o u t p u t  t=   2.85002E-02

 pressure boundary condition forces 

 nd#       1  xforce=   0.3894E+01   yforce=   0.1402E+03  zforce=   0.0000E+00   energy=   0.1963E+03
 nd#      11  xforce=   0.1741E+03   yforce=   0.1741E+03  zforce=   0.0000E+00   energy=  -0.4075E+02
 nd#      23  xforce=   0.1402E+03   yforce=   0.3893E+01  zforce=   0.0000E+00   energy=   0.1963E+03
              xtotal=   0.3182E+03   ytotal=   0.3182E+03  ztotal=   0.0000E+00   etotal=   0.3518E+03

 n o d a l   f o r c e/e n e r g y    o u t p u t  t=   2.90000E-02

 pressure boundary condition forces 

 nd#       1  xforce=   0.4220E+00   yforce=   0.1426E+03  zforce=   0.0000E+00   energy=   0.2004E+03
 nd#      11  xforce=   0.1776E+03   yforce=   0.1776E+03  zforce=   0.0000E+00   energy=  -0.4255E+02
 nd#      23  xforce=   0.1426E+03   yforce=   0.4238E+00  zforce=   0.0000E+00   energy=   0.2004E+03
              xtotal=   0.3206E+03   ytotal=   0.3206E+03  ztotal=   0.0000E+00   etotal=   0.3582E+03

 n o d a l   f o r c e/e n e r g y    o u t p u t  t=   2.95002E-02

 pressure boundary condition forces 

 nd#       1  xforce=  -0.3123E+01   yforce=   0.1450E+03  zforce=   0.0000E+00   energy=   0.2045E+03
 nd#      11  xforce=   0.1811E+03   yforce=   0.1811E+03  zforce=   0.0000E+00   energy=  -0.4441E+02
 nd#      23  xforce=   0.1450E+03   yforce=  -0.3123E+01  zforce=   0.0000E+00   energy=   0.2045E+03
              xtotal=   0.3229E+03   ytotal=   0.3229E+03  ztotal=   0.0000E+00   etotal=   0.3647E+03

 n o d a l   f o r c e/e n e r g y    o u t p u t  t=   3.00002E-02

 pressure boundary condition forces 

 nd#       1  xforce=  -0.6695E+01   yforce=   0.1474E+03  zforce=   0.0000E+00   energy=   0.2087E+03
 nd#      11  xforce=   0.1846E+03   yforce=   0.1846E+03  zforce=   0.0000E+00   energy=  -0.4631E+02
 nd#      23  xforce=   0.1474E+03   yforce=  -0.6695E+01  zforce=   0.0000E+00   energy=   0.2087E+03
              xtotal=   0.3252E+03   ytotal=   0.3252E+03  ztotal=   0.0000E+00   etotal=   0.3711E+03

 n o d a l   f o r c e/e n e r g y    o u t p u t  t=   3.05001E-02

 pressure boundary condition forces 

 nd#       1  xforce=  -0.1032E+02   yforce=   0.1497E+03  zforce=   0.0000E+00   energy=   0.2128E+03
 nd#      11  xforce=   0.1881E+03   yforce=   0.1881E+03  zforce=   0.0000E+00   energy=  -0.4821E+02
 nd#      23  xforce=   0.1497E+03   yforce=  -0.1032E+02  zforce=   0.0000E+00   energy=   0.2128E+03
              xtotal=   0.3275E+03   ytotal=   0.3275E+03  ztotal=   0.0000E+00   etotal=   0.3773E+03

 n o d a l   f o r c e/e n e r g y    o u t p u t  t=   3.10001E-02

 pressure boundary condition forces 

 nd#       1  xforce=  -0.1397E+02   yforce=   0.1521E+03  zforce=   0.0000E+00   energy=   0.2168E+03
 nd#      11  xforce=   0.1916E+03   yforce=   0.1916E+03  zforce=   0.0000E+00   energy=  -0.5011E+02
 nd#      23  xforce=   0.1521E+03   yforce=  -0.1397E+02  zforce=   0.0000E+00   energy=   0.2168E+03
              xtotal=   0.3297E+03   ytotal=   0.3297E+03  ztotal=   0.0000E+00   etotal=   0.3835E+03

 n o d a l   f o r c e/e n e r g y    o u t p u t  t=   3.15000E-02

 pressure boundary condition forces 

 nd#       1  xforce=  -0.1762E+02   yforce=   0.1545E+03  zforce=   0.0000E+00   energy=   0.2208E+03
 nd#      11  xforce=   0.1951E+03   yforce=   0.1951E+03  zforce=   0.0000E+00   energy=  -0.5202E+02
 nd#      23  xforce=   0.1545E+03   yforce=  -0.1762E+02  zforce=   0.0000E+00   energy=   0.2208E+03
              xtotal=   0.3319E+03   ytotal=   0.3319E+03  ztotal=   0.0000E+00   etotal=   0.3895E+03

 n o d a l   f o r c e/e n e r g y    o u t p u t  t=   3.20001E-02

 pressure boundary condition forces 

 nd#       1  xforce=  -0.2140E+02   yforce=   0.1569E+03  zforce=   0.0000E+00   energy=   0.2247E+03
 nd#      11  xforce=   0.1986E+03   yforce=   0.1986E+03  zforce=   0.0000E+00   energy=  -0.5394E+02
 nd#      23  xforce=   0.1569E+03   yforce=  -0.2140E+02  zforce=   0.0000E+00   energy=   0.2247E+03
              xtotal=   0.3340E+03   ytotal=   0.3340E+03  ztotal=   0.0000E+00   etotal=   0.3955E+03

 n o d a l   f o r c e/e n e r g y    o u t p u t  t=   3.25001E-02

 pressure boundary condition forces 

 nd#       1  xforce=  -0.2517E+02   yforce=   0.1592E+03  zforce=   0.0000E+00   energy=   0.2287E+03
 nd#      11  xforce=   0.2021E+03   yforce=   0.2021E+03  zforce=   0.0000E+00   energy=  -0.5591E+02
 nd#      23  xforce=   0.1592E+03   yforce=  -0.2517E+02  zforce=   0.0000E+00   energy=   0.2287E+03
              xtotal=   0.3361E+03   ytotal=   0.3361E+03  ztotal=   0.0000E+00   etotal=   0.4016E+03

 n o d a l   f o r c e/e n e r g y    o u t p u t  t=   3.30001E-02

 pressure boundary condition forces 

 nd#       1  xforce=  -0.2898E+02   yforce=   0.1616E+03  zforce=   0.0000E+00   energy=   0.2328E+03
 nd#      11  xforce=   0.2056E+03   yforce=   0.2056E+03  zforce=   0.0000E+00   energy=  -0.5792E+02
 nd#      23  xforce=   0.1616E+03   yforce=  -0.2898E+02  zforce=   0.0000E+00   energy=   0.2328E+03
              xtotal=   0.3382E+03   ytotal=   0.3382E+03  ztotal=   0.0000E+00   etotal=   0.4077E+03

 n o d a l   f o r c e/e n e r g y    o u t p u t  t=   3.35001E-02

 pressure boundary condition forces 

 nd#       1  xforce=  -0.3285E+02   yforce=   0.1640E+03  zforce=   0.0000E+00   energy=   0.2368E+03
 nd#      11  xforce=   0.2091E+03   yforce=   0.2091E+03  zforce=   0.0000E+00   energy=  -0.5993E+02
 nd#      23  xforce=   0.1640E+03   yforce=  -0.3285E+02  zforce=   0.0000E+00   energy=   0.2368E+03
              xtotal=   0.3403E+03   ytotal=   0.3403E+03  ztotal=   0.0000E+00   etotal=   0.4136E+03

 n o d a l   f o r c e/e n e r g y    o u t p u t  t=   3.40002E-02

 pressure boundary condition forces 

 nd#       1  xforce=  -0.3672E+02   yforce=   0.1663E+03  zforce=   0.0000E+00   energy=   0.2406E+03
 nd#      11  xforce=   0.2126E+03   yforce=   0.2126E+03  zforce=   0.0000E+00   energy=  -0.6184E+02
 nd#      23  xforce=   0.1663E+03   yforce=  -0.3672E+02  zforce=   0.0000E+00   energy=   0.2406E+03
              xtotal=   0.3423E+03   ytotal=   0.3423E+03  ztotal=   0.0000E+00   etotal=   0.4193E+03

 n o d a l   f o r c e/e n e r g y    o u t p u t  t=   3.45002E-02

 pressure boundary condition forces 

 nd#       1  xforce=  -0.4060E+02   yforce=   0.1687E+03  zforce=   0.0000E+00   energy=   0.2441E+03
 nd#      11  xforce=   0.2161E+03   yforce=   0.2161E+03  zforce=   0.0000E+00   energy=  -0.6366E+02
 nd#      23  xforce=   0.1687E+03   yforce=  -0.4060E+02  zforce=   0.0000E+00   energy=   0.2441E+03
              xtotal=   0.3442E+03   ytotal=   0.3442E+03  ztotal=   0.0000E+00   etotal=   0.4246E+03

 n o d a l   f o r c e/e n e r g y    o u t p u t  t=   3.50000E-02

 pressure boundary condition forces 

 nd#       1  xforce=  -0.4457E+02   yforce=   0.1711E+03  zforce=   0.0000E+00   energy=   0.2479E+03
 nd#      11  xforce=   0.2196E+03   yforce=   0.2196E+03  zforce=   0.0000E+00   energy=  -0.6559E+02
 nd#      23  xforce=   0.1711E+03   yforce=  -0.4457E+02  zforce=   0.0000E+00   energy=   0.2479E+03
              xtotal=   0.3462E+03   ytotal=   0.3462E+03  ztotal=   0.0000E+00   etotal=   0.4302E+03

 n o d a l   f o r c e/e n e r g y    o u t p u t  t=   3.55002E-02

 pressure boundary condition forces 

 nd#       1  xforce=  -0.4862E+02   yforce=   0.1735E+03  zforce=   0.0000E+00   energy=   0.2519E+03
 nd#      11  xforce=   0.2232E+03   yforce=   0.2232E+03  zforce=   0.0000E+00   energy=  -0.6768E+02
 nd#      23  xforce=   0.1735E+03   yforce=  -0.4862E+02  zforce=   0.0000E+00   energy=   0.2519E+03
              xtotal=   0.3480E+03   ytotal=   0.3480E+03  ztotal=   0.0000E+00   etotal=   0.4361E+03

 n o d a l   f o r c e/e n e r g y    o u t p u t  t=   3.60001E-02

 pressure boundary condition forces 

 nd#       1  xforce=  -0.5266E+02   yforce=   0.1758E+03  zforce=   0.0000E+00   energy=   0.2556E+03
 nd#      11  xforce=   0.2267E+03   yforce=   0.2267E+03  zforce=   0.0000E+00   energy=  -0.6959E+02
 nd#      23  xforce=   0.1758E+03   yforce=  -0.5266E+02  zforce=   0.0000E+00   energy=   0.2556E+03
              xtotal=   0.3499E+03   ytotal=   0.3499E+03  ztotal=   0.0000E+00   etotal=   0.4415E+03

 n o d a l   f o r c e/e n e r g y    o u t p u t  t=   3.65002E-02

 pressure boundary condition forces 

 nd#       1  xforce=  -0.5670E+02   yforce=   0.1782E+03  zforce=   0.0000E+00   energy=   0.2590E+03
 nd#      11  xforce=   0.2302E+03   yforce=   0.2302E+03  zforce=   0.0000E+00   energy=  -0.7141E+02
 nd#      23  xforce=   0.1782E+03   yforce=  -0.5670E+02  zforce=   0.0000E+00   energy=   0.2590E+03
              xtotal=   0.3517E+03   ytotal=   0.3517E+03  ztotal=   0.0000E+00   etotal=   0.4467E+03

 n o d a l   f o r c e/e n e r g y    o u t p u t  t=   3.70001E-02

 pressure boundary condition forces 

 nd#       1  xforce=  -0.6091E+02   yforce=   0.1805E+03  zforce=   0.0000E+00   energy=   0.2630E+03
 nd#      11  xforce=   0.2338E+03   yforce=   0.2338E+03  zforce=   0.0000E+00   energy=  -0.7352E+02
 nd#      23  xforce=   0.1805E+03   yforce=  -0.6091E+02  zforce=   0.0000E+00   energy=   0.2630E+03
              xtotal=   0.3534E+03   ytotal=   0.3534E+03  ztotal=   0.0000E+00   etotal=   0.4525E+03

 n o d a l   f o r c e/e n e r g y    o u t p u t  t=   3.75001E-02

 pressure boundary condition forces 

 nd#       1  xforce=  -0.6507E+02   yforce=   0.1829E+03  zforce=   0.0000E+00   energy=   0.2665E+03
 nd#      11  xforce=   0.2373E+03   yforce=   0.2373E+03  zforce=   0.0000E+00   energy=  -0.7536E+02
 nd#      23  xforce=   0.1829E+03   yforce=  -0.6506E+02  zforce=   0.0000E+00   energy=   0.2665E+03
              xtotal=   0.3552E+03   ytotal=   0.3552E+03  ztotal=   0.0000E+00   etotal=   0.4577E+03

 n o d a l   f o r c e/e n e r g y    o u t p u t  t=   3.80002E-02

 pressure boundary condition forces 

 nd#       1  xforce=  -0.6929E+02   yforce=   0.1853E+03  zforce=   0.0000E+00   energy=   0.2702E+03
 nd#      11  xforce=   0.2409E+03   yforce=   0.2409E+03  zforce=   0.0000E+00   energy=  -0.7731E+02
 nd#      23  xforce=   0.1853E+03   yforce=  -0.6929E+02  zforce=   0.0000E+00   energy=   0.2702E+03
              xtotal=   0.3568E+03   ytotal=   0.3568E+03  ztotal=   0.0000E+00   etotal=   0.4631E+03

 n o d a l   f o r c e/e n e r g y    o u t p u t  t=   3.85002E-02

 pressure boundary condition forces 

 nd#       1  xforce=  -0.7359E+02   yforce=   0.1876E+03  zforce=   0.0000E+00   energy=   0.2740E+03
 nd#      11  xforce=   0.2444E+03   yforce=   0.2444E+03  zforce=   0.0000E+00   energy=  -0.7932E+02
 nd#      23  xforce=   0.1876E+03   yforce=  -0.7359E+02  zforce=   0.0000E+00   energy=   0.2740E+03
              xtotal=   0.3585E+03   ytotal=   0.3585E+03  ztotal=   0.0000E+00   etotal=   0.4686E+03

 n o d a l   f o r c e/e n e r g y    o u t p u t  t=   3.90001E-02

 pressure boundary condition forces 

 nd#       1  xforce=  -0.7789E+02   yforce=   0.1900E+03  zforce=   0.0000E+00   energy=   0.2774E+03
 nd#      11  xforce=   0.2479E+03   yforce=   0.2479E+03  zforce=   0.0000E+00   energy=  -0.8115E+02
 nd#      23  xforce=   0.1900E+03   yforce=  -0.7790E+02  zforce=   0.0000E+00   energy=   0.2774E+03
              xtotal=   0.3600E+03   ytotal=   0.3600E+03  ztotal=   0.0000E+00   etotal=   0.4737E+03

 n o d a l   f o r c e/e n e r g y    o u t p u t  t=   3.95001E-02

 pressure boundary condition forces 

 nd#       1  xforce=  -0.8230E+02   yforce=   0.1923E+03  zforce=   0.0000E+00   energy=   0.2813E+03
 nd#      11  xforce=   0.2515E+03   yforce=   0.2515E+03  zforce=   0.0000E+00   energy=  -0.8320E+02
 nd#      23  xforce=   0.1923E+03   yforce=  -0.8231E+02  zforce=   0.0000E+00   energy=   0.2813E+03
              xtotal=   0.3616E+03   ytotal=   0.3616E+03  ztotal=   0.0000E+00   etotal=   0.4794E+03

 n o d a l   f o r c e/e n e r g y    o u t p u t  t=   4.00001E-02

 pressure boundary condition forces 

 nd#       1  xforce=  -0.8671E+02   yforce=   0.1947E+03  zforce=   0.0000E+00   energy=   0.2848E+03
 nd#      11  xforce=   0.2551E+03   yforce=   0.2551E+03  zforce=   0.0000E+00   energy=  -0.8503E+02
 nd#      23  xforce=   0.1947E+03   yforce=  -0.8671E+02  zforce=   0.0000E+00   energy=   0.2848E+03
              xtotal=   0.3631E+03   ytotal=   0.3631E+03  ztotal=   0.0000E+00   etotal=   0.4845E+03

 n o d a l   f o r c e/e n e r g y    o u t p u t  t=   4.05001E-02

 pressure boundary condition forces 

 nd#       1  xforce=  -0.9123E+02   yforce=   0.1971E+03  zforce=   0.0000E+00   energy=   0.2885E+03
 nd#      11  xforce=   0.2586E+03   yforce=   0.2586E+03  zforce=   0.0000E+00   energy=  -0.8701E+02
 nd#      23  xforce=   0.1971E+03   yforce=  -0.9123E+02  zforce=   0.0000E+00   energy=   0.2885E+03
              xtotal=   0.3645E+03   ytotal=   0.3645E+03  ztotal=   0.0000E+00   etotal=   0.4900E+03

 n o d a l   f o r c e/e n e r g y    o u t p u t  t=   4.10001E-02

 pressure boundary condition forces 

 nd#       1  xforce=  -0.9578E+02   yforce=   0.1994E+03  zforce=   0.0000E+00   energy=   0.2922E+03
 nd#      11  xforce=   0.2622E+03   yforce=   0.2622E+03  zforce=   0.0000E+00   energy=  -0.8894E+02
 nd#      23  xforce=   0.1994E+03   yforce=  -0.9578E+02  zforce=   0.0000E+00   energy=   0.2922E+03
              xtotal=   0.3659E+03   ytotal=   0.3659E+03  ztotal=   0.0000E+00   etotal=   0.4955E+03

 n o d a l   f o r c e/e n e r g y    o u t p u t  t=   4.15001E-02

 pressure boundary condition forces 

 nd#       1  xforce=  -0.1004E+03   yforce=   0.2018E+03  zforce=   0.0000E+00   energy=   0.2957E+03
 nd#      11  xforce=   0.2658E+03   yforce=   0.2658E+03  zforce=   0.0000E+00   energy=  -0.9073E+02
 nd#      23  xforce=   0.2018E+03   yforce=  -0.1004E+03  zforce=   0.0000E+00   energy=   0.2957E+03
              xtotal=   0.3672E+03   ytotal=   0.3672E+03  ztotal=   0.0000E+00   etotal=   0.5007E+03

 n o d a l   f o r c e/e n e r g y    o u t p u t  t=   4.20001E-02

 pressure boundary condition forces 

 nd#       1  xforce=  -0.1051E+03   yforce=   0.2041E+03  zforce=   0.0000E+00   energy=   0.2997E+03
 nd#      11  xforce=   0.2694E+03   yforce=   0.2694E+03  zforce=   0.0000E+00   energy=  -0.9276E+02
 nd#      23  xforce=   0.2041E+03   yforce=  -0.1051E+03  zforce=   0.0000E+00   energy=   0.2997E+03
              xtotal=   0.3684E+03   ytotal=   0.3684E+03  ztotal=   0.0000E+00   etotal=   0.5067E+03

 n o d a l   f o r c e/e n e r g y    o u t p u t  t=   4.25001E-02

 pressure boundary condition forces 

 nd#       1  xforce=  -0.1098E+03   yforce=   0.2065E+03  zforce=   0.0000E+00   energy=   0.3033E+03
 nd#      11  xforce=   0.2730E+03   yforce=   0.2730E+03  zforce=   0.0000E+00   energy=  -0.9453E+02
 nd#      23  xforce=   0.2065E+03   yforce=  -0.1098E+03  zforce=   0.0000E+00   energy=   0.3033E+03
              xtotal=   0.3697E+03   ytotal=   0.3697E+03  ztotal=   0.0000E+00   etotal=   0.5121E+03

 n o d a l   f o r c e/e n e r g y    o u t p u t  t=   4.30002E-02

 pressure boundary condition forces 

 nd#       1  xforce=  -0.1146E+03   yforce=   0.2089E+03  zforce=   0.0000E+00   energy=   0.3070E+03
 nd#      11  xforce=   0.2766E+03   yforce=   0.2766E+03  zforce=   0.0000E+00   energy=  -0.9633E+02
 nd#      23  xforce=   0.2089E+03   yforce=  -0.1146E+03  zforce=   0.0000E+00   energy=   0.3070E+03
              xtotal=   0.3708E+03   ytotal=   0.3708E+03  ztotal=   0.0000E+00   etotal=   0.5177E+03

 n o d a l   f o r c e/e n e r g y    o u t p u t  t=   4.35002E-02

 pressure boundary condition forces 

 nd#       1  xforce=  -0.1195E+03   yforce=   0.2112E+03  zforce=   0.0000E+00   energy=   0.3111E+03
 nd#      11  xforce=   0.2802E+03   yforce=   0.2802E+03  zforce=   0.0000E+00   energy=  -0.9828E+02
 nd#      23  xforce=   0.2112E+03   yforce=  -0.1195E+03  zforce=   0.0000E+00   energy=   0.3111E+03
              xtotal=   0.3719E+03   ytotal=   0.3719E+03  ztotal=   0.0000E+00   etotal=   0.5239E+03

 n o d a l   f o r c e/e n e r g y    o u t p u t  t=   4.40001E-02

 pressure boundary condition forces 

 nd#       1  xforce=  -0.1245E+03   yforce=   0.2136E+03  zforce=   0.0000E+00   energy=   0.3150E+03
 nd#      11  xforce=   0.2838E+03   yforce=   0.2838E+03  zforce=   0.0000E+00   energy=  -0.9999E+02
 nd#      23  xforce=   0.2136E+03   yforce=  -0.1245E+03  zforce=   0.0000E+00   energy=   0.3150E+03
              xtotal=   0.3729E+03   ytotal=   0.3729E+03  ztotal=   0.0000E+00   etotal=   0.5300E+03

 n o d a l   f o r c e/e n e r g y    o u t p u t  t=   4.45002E-02

 pressure boundary condition forces 

 nd#       1  xforce=  -0.1296E+03   yforce=   0.2159E+03  zforce=   0.0000E+00   energy=   0.3189E+03
 nd#      11  xforce=   0.2875E+03   yforce=   0.2875E+03  zforce=   0.0000E+00   energy=  -0.1016E+03
 nd#      23  xforce=   0.2159E+03   yforce=  -0.1296E+03  zforce=   0.0000E+00   energy=   0.3189E+03
              xtotal=   0.3738E+03   ytotal=   0.3738E+03  ztotal=   0.0000E+00   etotal=   0.5362E+03

 n o d a l   f o r c e/e n e r g y    o u t p u t  t=   4.50001E-02

 pressure boundary condition forces 

 nd#       1  xforce=  -0.1348E+03   yforce=   0.2183E+03  zforce=   0.0000E+00   energy=   0.3231E+03
 nd#      11  xforce=   0.2911E+03   yforce=   0.2911E+03  zforce=   0.0000E+00   energy=  -0.1033E+03
 nd#      23  xforce=   0.2183E+03   yforce=  -0.1348E+03  zforce=   0.0000E+00   energy=   0.3231E+03
              xtotal=   0.3747E+03   ytotal=   0.3747E+03  ztotal=   0.0000E+00   etotal=   0.5430E+03

 n o d a l   f o r c e/e n e r g y    o u t p u t  t=   4.55001E-02

 pressure boundary condition forces 

 nd#       1  xforce=  -0.1401E+03   yforce=   0.2207E+03  zforce=   0.0000E+00   energy=   0.3277E+03
 nd#      11  xforce=   0.2948E+03   yforce=   0.2948E+03  zforce=   0.0000E+00   energy=  -0.1049E+03
 nd#      23  xforce=   0.2207E+03   yforce=  -0.1401E+03  zforce=   0.0000E+00   energy=   0.3277E+03
              xtotal=   0.3754E+03   ytotal=   0.3754E+03  ztotal=   0.0000E+00   etotal=   0.5505E+03

 n o d a l   f o r c e/e n e r g y    o u t p u t  t=   4.60002E-02

 pressure boundary condition forces 

 nd#       1  xforce=  -0.1455E+03   yforce=   0.2230E+03  zforce=   0.0000E+00   energy=   0.3322E+03
 nd#      11  xforce=   0.2985E+03   yforce=   0.2985E+03  zforce=   0.0000E+00   energy=  -0.1062E+03
 nd#      23  xforce=   0.2230E+03   yforce=  -0.1455E+03  zforce=   0.0000E+00   energy=   0.3322E+03
              xtotal=   0.3761E+03   ytotal=   0.3761E+03  ztotal=   0.0000E+00   etotal=   0.5583E+03

 n o d a l   f o r c e/e n e r g y    o u t p u t  t=   4.65000E-02

 pressure boundary condition forces 

 nd#       1  xforce=  -0.1509E+03   yforce=   0.2254E+03  zforce=   0.0000E+00   energy=   0.3369E+03
 nd#      11  xforce=   0.3023E+03   yforce=   0.3023E+03  zforce=   0.0000E+00   energy=  -0.1073E+03
 nd#      23  xforce=   0.2254E+03   yforce=  -0.1509E+03  zforce=   0.0000E+00   energy=   0.3369E+03
              xtotal=   0.3767E+03   ytotal=   0.3767E+03  ztotal=   0.0000E+00   etotal=   0.5664E+03

 n o d a l   f o r c e/e n e r g y    o u t p u t  t=   4.70001E-02

 pressure boundary condition forces 

 nd#       1  xforce=  -0.1566E+03   yforce=   0.2278E+03  zforce=   0.0000E+00   energy=   0.3425E+03
 nd#      11  xforce=   0.3061E+03   yforce=   0.3061E+03  zforce=   0.0000E+00   energy=  -0.1081E+03
 nd#      23  xforce=   0.2278E+03   yforce=  -0.1566E+03  zforce=   0.0000E+00   energy=   0.3425E+03
              xtotal=   0.3773E+03   ytotal=   0.3773E+03  ztotal=   0.0000E+00   etotal=   0.5769E+03

 n o d a l   f o r c e/e n e r g y    o u t p u t  t=   4.75001E-02

 pressure boundary condition forces 

 nd#       1  xforce=  -0.1625E+03   yforce=   0.2302E+03  zforce=   0.0000E+00   energy=   0.3488E+03
 nd#      11  xforce=   0.3100E+03   yforce=   0.3100E+03  zforce=   0.0000E+00   energy=  -0.1081E+03
 nd#      23  xforce=   0.2302E+03   yforce=  -0.1625E+03  zforce=   0.0000E+00   energy=   0.3488E+03
              xtotal=   0.3778E+03   ytotal=   0.3778E+03  ztotal=   0.0000E+00   etotal=   0.5896E+03

 n o d a l   f o r c e/e n e r g y    o u t p u t  t=   4.80002E-02

 pressure boundary condition forces 

 nd#       1  xforce=  -0.1684E+03   yforce=   0.2327E+03  zforce=   0.0000E+00   energy=   0.3562E+03
 nd#      11  xforce=   0.3140E+03   yforce=   0.3140E+03  zforce=   0.0000E+00   energy=  -0.1070E+03
 nd#      23  xforce=   0.2327E+03   yforce=  -0.1684E+03  zforce=   0.0000E+00   energy=   0.3562E+03
              xtotal=   0.3783E+03   ytotal=   0.3783E+03  ztotal=   0.0000E+00   etotal=   0.6053E+03

 n o d a l   f o r c e/e n e r g y    o u t p u t  t=   4.85002E-02

 pressure boundary condition forces 

 nd#       1  xforce=  -0.1747E+03   yforce=   0.2352E+03  zforce=   0.0000E+00   energy=   0.3650E+03
 nd#      11  xforce=   0.3182E+03   yforce=   0.3182E+03  zforce=   0.0000E+00   energy=  -0.1042E+03
 nd#      23  xforce=   0.2352E+03   yforce=  -0.1747E+03  zforce=   0.0000E+00   energy=   0.3650E+03
              xtotal=   0.3788E+03   ytotal=   0.3788E+03  ztotal=   0.0000E+00   etotal=   0.6258E+03

 n o d a l   f o r c e/e n e r g y    o u t p u t  t=   4.90002E-02

 pressure boundary condition forces 

 nd#       1  xforce=  -0.1814E+03   yforce=   0.2379E+03  zforce=   0.0000E+00   energy=   0.3757E+03
 nd#      11  xforce=   0.3226E+03   yforce=   0.3226E+03  zforce=   0.0000E+00   energy=  -0.9900E+02
 nd#      23  xforce=   0.2379E+03   yforce=  -0.1814E+03  zforce=   0.0000E+00   energy=   0.3757E+03
              xtotal=   0.3790E+03   ytotal=   0.3790E+03  ztotal=   0.0000E+00   etotal=   0.6523E+03

 n o d a l   f o r c e/e n e r g y    o u t p u t  t=   4.95000E-02

 pressure boundary condition forces 

 nd#       1  xforce=  -0.1886E+03   yforce=   0.2406E+03  zforce=   0.0000E+00   energy=   0.3874E+03
 nd#      11  xforce=   0.3271E+03   yforce=   0.3271E+03  zforce=   0.0000E+00   energy=  -0.9146E+02
 nd#      23  xforce=   0.2406E+03   yforce=  -0.1886E+03  zforce=   0.0000E+00   energy=   0.3875E+03
              xtotal=   0.3791E+03   ytotal=   0.3791E+03  ztotal=   0.0000E+00   etotal=   0.6834E+03

 n o d a l   f o r c e/e n e r g y    o u t p u t  t=   5.00002E-02

 pressure boundary condition forces 

 nd#       1  xforce=  -0.1960E+03   yforce=   0.2434E+03  zforce=   0.0000E+00   energy=   0.4002E+03
 nd#      11  xforce=   0.3317E+03   yforce=   0.3317E+03  zforce=   0.0000E+00   energy=  -0.8179E+02
 nd#      23  xforce=   0.2434E+03   yforce=  -0.1960E+03  zforce=   0.0000E+00   energy=   0.4002E+03
              xtotal=   0.3791E+03   ytotal=   0.3791E+03  ztotal=   0.0000E+00   etotal=   0.7185E+03
