$# LS-DYNA Keyword file created by LS-PrePost(R) V4.6.4 - 20Mar2019
$# Created on Sep-20-2019 (10:22:21)
*KEYWORD  
*CONTROL_TERMINATION
      10.0         0       0.0       0.01.000000E8         0
*DATABASE_GLSTAT
       0.0         0         0         1
*DATABASE_MATSUM
       0.0         0         0         1
*DATABASE_SLEOUT
       0.0         0         0         1
*DATABASE_BINARY_D3PLOT
       1.0         0         0         0         0
         0
*BOUNDARY_SPC_SET
         1         0         1         1         1         0         0         0
*SET_NODE_LIST_TITLE
NODESET(SPC) 1
         1       0.0       0.0       0.0       0.0MECH
         1         2         3         4         5         6         7         8
         9        10        11        12        13        14        15        16
        17        18        34        35        51        52        68        69
        85        86       102       103       119       120       136       137
       153       154       170       171       187       188       204       205
       221       222       238       239       255       256       272       273
       274       275       276       277       278       279       280       281
       282       283       284       285       286       287       288       289
*CONTACT_AUTOMATIC_SINGLE_SURFACE_ID
         1contact definition
         1         0         2         0         0         0         0         0
       0.0       0.0       0.0       0.0       0.0         0       0.01.00000E20
       1.0       1.0       0.0       0.0       1.0       1.0       1.0       1.0
*SET_PART_LIST_TITLE
contact part set
         1       0.0       0.0       0.0       0.0MECH
         1         2         0         0         0         0         0         0
*PART
plate
         1         2         2         0         0         0         0         0
*SECTION_SHELL_TITLE
plate section
         2         2       1.0         5       1.0         0         0         1
       1.0       1.0       1.0       1.0       0.0       0.0       0.0         0
*MAT_PIECEWISE_LINEAR_PLASTICITY_TITLE
material for plate
         27.83000E-6     207.0       0.3       0.2       2.01.00000E21       0.0
       0.0       0.0         0         0       0.0
       0.0       0.0       0.0       0.0       0.0       0.0       0.0       0.0
       0.0       0.0       0.0       0.0       0.0       0.0       0.0       0.0
*PART
ball
         2         1         1         0         0         0         0         0
*SECTION_SOLID_TITLE
rigid section
         1         1         0
*MAT_RIGID_TITLE
rigid material for ball
         17.83000E-6     207.0       0.3       0.0       0.0       0.0          
       0.0         0         0
       0.0       0.0       0.0       0.0       0.0       0.0
*INITIAL_VELOCITY_NODE
       290       0.0       0.0     -10.0       0.0       0.0       0.0         0
       291       0.0       0.0     -10.0       0.0       0.0       0.0         0
       292       0.0       0.0     -10.0       0.0       0.0       0.0         0
       293       0.0       0.0     -10.0       0.0       0.0       0.0         0
       294       0.0       0.0     -10.0       0.0       0.0       0.0         0
       295       0.0       0.0     -10.0       0.0       0.0       0.0         0
       296       0.0       0.0     -10.0       0.0       0.0       0.0         0
       297       0.0       0.0     -10.0       0.0       0.0       0.0         0
       298       0.0       0.0     -10.0       0.0       0.0       0.0         0
       299       0.0       0.0     -10.0       0.0       0.0       0.0         0
       300       0.0       0.0     -10.0       0.0       0.0       0.0         0
       301       0.0       0.0     -10.0       0.0       0.0       0.0         0
       302       0.0       0.0     -10.0       0.0       0.0       0.0         0
       303       0.0       0.0     -10.0       0.0       0.0       0.0         0
       304       0.0       0.0     -10.0       0.0       0.0       0.0         0
       305       0.0       0.0     -10.0       0.0       0.0       0.0         0
       306       0.0       0.0     -10.0       0.0       0.0       0.0         0
       307       0.0       0.0     -10.0       0.0       0.0       0.0         0
       308       0.0       0.0     -10.0       0.0       0.0       0.0         0
       309       0.0       0.0     -10.0       0.0       0.0       0.0         0
$ ... 1631 like lines cut
*ELEMENT_SOLID
     257       2     290     339     346     297     291     340     347     298
     258       2     291     340     347     298     292     341     348     299
     259       2     292     341     348     299     293     342     349     300
     260       2     293     342     349     300     294     343     350     301
     261       2     294     343     350     301     295     344     351     302
     262       2     295     344     351     302     296     345     352     303
     263       2     297     346     353     304     298     347     354     305
     264       2     298     347     354     305     299     348     355     306
     265       2     299     348     355     306     300     349     356     307
     266       2     300     349     356     307     301     350     357     308
     267       2     301     350     357     308     302     351     358     309
     268       2     302     351     358     309     303     352     359     310
     269       2     304     353     360     311     305     354     361     312
     270       2     305     354     361     312     306     355     362     313
     271       2     306     355     362     313     307     356     363     314
     272       2     307     356     363     314     308     357     364     315
     273       2     308     357     364     315     309     358     365     316
     274       2     309     358     365     316     310     359     366     317
     275       2     311     360     367     318     312     361     368     319
     276       2     312     361     368     319     313     362     369     320
$ ... 1492 like lines cut
*ELEMENT_SHELL
       1       1      18      19       2       1       0       0       0       0
       2       1      19      20       3       2       0       0       0       0
       3       1      20      21       4       3       0       0       0       0
       4       1      21      22       5       4       0       0       0       0
       5       1      22      23       6       5       0       0       0       0
       6       1      23      24       7       6       0       0       0       0
       7       1      24      25       8       7       0       0       0       0
       8       1      25      26       9       8       0       0       0       0
       9       1      26      27      10       9       0       0       0       0
      10       1      27      28      11      10       0       0       0       0
      11       1      28      29      12      11       0       0       0       0
      12       1      29      30      13      12       0       0       0       0
      13       1      30      31      14      13       0       0       0       0
      14       1      31      32      15      14       0       0       0       0
      15       1      32      33      16      15       0       0       0       0
      16       1      33      34      17      16       0       0       0       0
      17       1      35      36      19      18       0       0       0       0
      18       1      36      37      20      19       0       0       0       0
      19       1      37      38      21      20       0       0       0       0
      20       1      38      39      22      21       0       0       0       0
$ ... 236 like lines cut
*NODE
       1          -150.0          -150.0             0.0       0       0
       2          -150.0         -131.25             0.0       0       0
       3          -150.0          -112.5             0.0       0       0
       4          -150.0          -93.75             0.0       0       0
       5          -150.0           -75.0             0.0       0       0
       6          -150.0          -56.25             0.0       0       0
       7          -150.0           -37.5             0.0       0       0
       8          -150.0          -18.75             0.0       0       0
       9          -150.0             0.0             0.0       0       0
      10          -150.0           18.75             0.0       0       0
      11          -150.0            37.5             0.0       0       0
      12          -150.0           56.25             0.0       0       0
      13          -150.0            75.0             0.0       0       0
      14          -150.0           93.75             0.0       0       0
      15          -150.0           112.5             0.0       0       0
      16          -150.0          131.25             0.0       0       0
      17          -150.0           150.0             0.0       0       0
      18         -131.25          -150.0             0.0       0       0
      19         -131.25         -131.25             0.0       0       0
      20         -131.25          -112.5             0.0       0       0
$ ... 1920 like lines cut
*END
