Curveplot
LS-DYNA keyword deck by LS-PrePost
Kinetic Energy
Internal Energy
Component
1 #pts=1000
* Minval=     1.9999999365e-20 at time=         0.0000000000
* Maxval=     7.2188201904e+02 at time=         0.0000000000
    0.0000000000e+00    1.9999999365e-20
    0.0000000000e+00    5.1957252435e-04
    0.0000000000e+00    1.0391450487e-03
    0.0000000000e+00    1.5587176895e-03
    0.0000000000e+00    2.0782900974e-03
    0.0000000000e+00    2.5978626218e-03
    0.0000000000e+00    3.1174353790e-03
    0.0000000000e+00    3.6370079033e-03
    0.0000000000e+00    4.1565806605e-03
    0.0000000000e+00    4.6761529520e-03
    0.0000000000e+00    5.2061039023e-03
    0.0000000000e+00    6.7634074949e-03
    0.0000000000e+00    8.3207115531e-03
    0.0000000000e+00    9.8780151457e-03
    0.0000000000e+00    1.1435318738e-02
    0.0000000000e+00    1.2992622331e-02
    0.0000000000e+00    1.4549926855e-02
    0.0000000000e+00    1.6107229516e-02
    0.0000000000e+00    1.7664533108e-02
    0.0000000000e+00    1.9221838564e-02
    0.0000000000e+00    2.0799849182e-02
    0.0000000000e+00    2.3392764851e-02
    0.0000000000e+00    2.5985680521e-02
    0.0000000000e+00    2.8578594327e-02
    0.0000000000e+00    3.1171509996e-02
    0.0000000000e+00    3.3764425665e-02
    0.0000000000e+00    3.6357339472e-02
    0.0000000000e+00    3.8950253278e-02
    0.0000000000e+00    4.1543170810e-02
    0.0000000000e+00    4.4136084616e-02
    0.0000000000e+00    4.6760011464e-02
    0.0000000000e+00    5.0386417657e-02
    0.0000000000e+00    5.4012827575e-02
    0.0000000000e+00    5.7639233768e-02
    0.0000000000e+00    6.1265643686e-02
    0.0000000000e+00    6.4892053604e-02
    0.0000000000e+00    6.8518459797e-02
    0.0000000000e+00    7.2144873440e-02
    0.0000000000e+00    7.5771279633e-02
    0.0000000000e+00    7.9397693276e-02
    0.0000000000e+00    8.3065360785e-02
    0.0000000000e+00    8.7723113596e-02
    0.0000000000e+00    9.2380866408e-02
    0.0000000000e+00    9.7038619220e-02
    0.0000000000e+00    1.0169637203e-01
    0.0000000000e+00    1.0635412484e-01
    0.0000000000e+00    1.1101187766e-01
    0.0000000000e+00    1.1566962302e-01
    0.0000000000e+00    1.2032738328e-01
    0.0000000000e+00    1.2498512864e-01
    0.0000000000e+00    1.2969434261e-01
    0.0000000000e+00    1.3538143039e-01
    0.0000000000e+00    1.4106850326e-01
    0.0000000000e+00    1.4675557613e-01
    0.0000000000e+00    1.5244266391e-01
    0.0000000000e+00    1.5812973678e-01
    0.0000000000e+00    1.6381680965e-01
    0.0000000000e+00    1.6950389743e-01
    0.0000000000e+00    1.7519097030e-01
    0.0000000000e+00    1.8087804317e-01
    0.0000000000e+00    1.8662673235e-01
    0.0000000000e+00    1.9334083796e-01
    0.0000000000e+00    2.0005492866e-01
    0.0000000000e+00    2.0676903427e-01
    0.0000000000e+00    2.1348313987e-01
    0.0000000000e+00    2.2019724548e-01
    0.0000000000e+00    2.2691135108e-01
    0.0000000000e+00    2.3362545669e-01
    0.0000000000e+00    2.4033956230e-01
    0.0000000000e+00    2.4705366790e-01
    0.0000000000e+00    2.5383949280e-01
    0.0000000000e+00    2.6157870889e-01
    0.0000000000e+00    2.6931792498e-01
    0.0000000000e+00    2.7705717087e-01
    0.0000000000e+00    2.8479638696e-01
    0.0000000000e+00    2.9253560305e-01
    0.0000000000e+00    3.0027484894e-01
    0.0000000000e+00    3.0801406503e-01
    0.0000000000e+00    3.1575328112e-01
    0.0000000000e+00    3.2349252701e-01
    0.0000000000e+00    3.3131361008e-01
    0.0000000000e+00    3.4007591009e-01
    0.0000000000e+00    3.4883821011e-01
    0.0000000000e+00    3.5760051012e-01
    0.0000000000e+00    3.6636281013e-01
    0.0000000000e+00    3.7512508035e-01
    0.0000000000e+00    3.8388738036e-01
    0.0000000000e+00    3.9264968038e-01
    0.0000000000e+00    4.0141198039e-01
    0.0000000000e+00    4.1017428041e-01
    0.0000000000e+00    4.1902846098e-01
    0.0000000000e+00    4.2881146073e-01
    0.0000000000e+00    4.3859446049e-01
    0.0000000000e+00    4.4837749004e-01
    0.0000000000e+00    4.5816048980e-01
    0.0000000000e+00    4.6794348955e-01
    0.0000000000e+00    4.7772651911e-01
    0.0000000000e+00    4.8750951886e-01
    0.0000000000e+00    4.9729251862e-01
    0.0000000000e+00    5.0707554817e-01
    0.0000000000e+00    5.1696044207e-01
    0.0000000000e+00    5.2776229382e-01
    0.0000000000e+00    5.3856414557e-01
    0.0000000000e+00    5.4936599731e-01
    0.0000000000e+00    5.6016778946e-01
    0.0000000000e+00    5.7096964121e-01
    0.0000000000e+00    5.8177149296e-01
    0.0000000000e+00    5.9257328510e-01
    0.0000000000e+00    6.0337513685e-01
    0.0000000000e+00    6.1417698860e-01
    0.0000000000e+00    6.2509071827e-01
    0.0000000000e+00    6.3690918684e-01
    0.0000000000e+00    6.4872759581e-01
    0.0000000000e+00    6.6054606438e-01
    0.0000000000e+00    6.7236453295e-01
    0.0000000000e+00    6.8418294191e-01
    0.0000000000e+00    6.9600141048e-01
    0.0000000000e+00    7.0781987906e-01
    0.0000000000e+00    7.1963828802e-01
    0.0000000000e+00    7.3145675659e-01
    0.0000000000e+00    7.4339705706e-01
    0.0000000000e+00    7.5623011589e-01
    0.0000000000e+00    7.6906317472e-01
    0.0000000000e+00    7.8189623356e-01
    0.0000000000e+00    7.9472935200e-01
    0.0000000000e+00    8.0756241083e-01
    0.0000000000e+00    8.2039546967e-01
    0.0000000000e+00    8.3322852850e-01
    0.0000000000e+00    8.4606164694e-01
    0.0000000000e+00    8.5889470577e-01
    0.0000000000e+00    8.7185943127e-01
    0.0000000000e+00    8.8570451736e-01
    0.0000000000e+00    8.9954960346e-01
    0.0000000000e+00    9.1339468956e-01
    0.0000000000e+00    9.2723983526e-01
    0.0000000000e+00    9.4108492136e-01
    0.0000000000e+00    9.5493000746e-01
    0.0000000000e+00    9.6877509356e-01
    0.0000000000e+00    9.8262017965e-01
    0.0000000000e+00    9.9646526575e-01
    0.0000000000e+00    1.0104521513e+00
    0.0000000000e+00    1.0253090858e+00
    0.0000000000e+00    1.0401660204e+00
    0.0000000000e+00    1.0550228357e+00
    0.0000000000e+00    1.0698797703e+00
    0.0000000000e+00    1.0847367048e+00
    0.0000000000e+00    1.0995936394e+00
    0.0000000000e+00    1.1144505739e+00
    0.0000000000e+00    1.1293075085e+00
    0.0000000000e+00    1.1441643238e+00
    0.0000000000e+00    1.1591725349e+00
    0.0000000000e+00    1.1750364304e+00
    0.0000000000e+00    1.1909003258e+00
    0.0000000000e+00    1.2067642212e+00
    0.0000000000e+00    1.2226281166e+00
    0.0000000000e+00    1.2384920120e+00
    0.0000000000e+00    1.2543559074e+00
    0.0000000000e+00    1.2702195644e+00
    0.0000000000e+00    1.2860834599e+00
    0.0000000000e+00    1.3019473553e+00
    0.0000000000e+00    1.3179725409e+00
    0.0000000000e+00    1.3348435163e+00
    0.0000000000e+00    1.3517143726e+00
    0.0000000000e+00    1.3685853481e+00
    0.0000000000e+00    1.3854562044e+00
    0.0000000000e+00    1.4023271799e+00
    0.0000000000e+00    1.4191981554e+00
    0.0000000000e+00    1.4360690117e+00
    0.0000000000e+00    1.4529399872e+00
    0.0000000000e+00    1.4698108435e+00
    0.0000000000e+00    1.4868526459e+00
    0.0000000000e+00    1.5047276020e+00
    0.0000000000e+00    1.5226026773e+00
    0.0000000000e+00    1.5404776335e+00
    0.0000000000e+00    1.5583525896e+00
    0.0000000000e+00    1.5762275457e+00
    0.0000000000e+00    1.5941025019e+00
    0.0000000000e+00    1.6119774580e+00
    0.0000000000e+00    1.6298524141e+00
    0.0000000000e+00    1.6477273703e+00
    0.0000000000e+00    1.6662356853e+00
    0.0000000000e+00    1.6876242161e+00
    0.0000000000e+00    1.7090126276e+00
    0.0000000000e+00    1.7304010391e+00
    0.0000000000e+00    1.7517895699e+00
    0.0000000000e+00    1.7731779814e+00
    0.0000000000e+00    1.7945663929e+00
    0.0000000000e+00    1.8159549236e+00
    0.0000000000e+00    1.8373433352e+00
    0.0000000000e+00    1.8587317467e+00
    0.0000000000e+00    1.8807818890e+00
    0.0000000000e+00    1.9056468010e+00
    0.0000000000e+00    1.9305117130e+00
    0.0000000000e+00    1.9553766251e+00
    0.0000000000e+00    1.9802415371e+00
    0.0000000000e+00    2.0051064491e+00
    0.0000000000e+00    2.0299713612e+00
    0.0000000000e+00    2.0548362732e+00
    0.0000000000e+00    2.0797014236e+00
    0.0000000000e+00    2.1045663357e+00
    0.0000000000e+00    2.1303229332e+00
    0.0000000000e+00    2.1596393585e+00
    0.0000000000e+00    2.1889557838e+00
    0.0000000000e+00    2.2182722092e+00
    0.0000000000e+00    2.2475886345e+00
    0.0000000000e+00    2.2769050598e+00
    0.0000000000e+00    2.3062214851e+00
    0.0000000000e+00    2.3355379105e+00
    0.0000000000e+00    2.3648543358e+00
    0.0000000000e+00    2.3941707611e+00
    0.0000000000e+00    2.4305830002e+00
    0.0000000000e+00    2.4936323166e+00
    0.0000000000e+00    2.5566816330e+00
    0.0000000000e+00    2.6197307110e+00
    0.0000000000e+00    2.6827800274e+00
    0.0000000000e+00    2.7458293438e+00
    0.0000000000e+00    2.8088784218e+00
    0.0000000000e+00    2.8719277382e+00
    0.0000000000e+00    2.9349768162e+00
    0.0000000000e+00    2.9980261326e+00
    0.0000000000e+00    3.0757949352e+00
    0.0000000000e+00    3.2056331635e+00
    0.0000000000e+00    3.3354716301e+00
    0.0000000000e+00    3.4653098583e+00
    0.0000000000e+00    3.5951480865e+00
    0.0000000000e+00    3.7249863148e+00
    0.0000000000e+00    3.8548245430e+00
    0.0000000000e+00    3.9846627712e+00
    0.0000000000e+00    4.1145009995e+00
    0.0000000000e+00    4.2443389893e+00
    0.0000000000e+00    4.4331898689e+00
    0.0000000000e+00    4.8191361427e+00
    0.0000000000e+00    5.2050819397e+00
    0.0000000000e+00    5.5910282135e+00
    0.0000000000e+00    5.9769744873e+00
    0.0000000000e+00    6.3629202843e+00
    0.0000000000e+00    6.7488660812e+00
    0.0000000000e+00    7.1348123550e+00
    0.0000000000e+00    7.5207586288e+00
    0.0000000000e+00    7.9067049026e+00
    0.0000000000e+00    8.5700387955e+00
    0.0000000000e+00    1.0109607697e+01
    0.0000000000e+00    1.1649176598e+01
    0.0000000000e+00    1.3188745499e+01
    0.0000000000e+00    1.4728315353e+01
    0.0000000000e+00    1.6267883301e+01
    0.0000000000e+00    1.7807453156e+01
    0.0000000000e+00    1.9347023010e+01
    0.0000000000e+00    2.0886590958e+01
    0.0000000000e+00    2.2426158905e+01
    0.0000000000e+00    2.3993381500e+01
    0.0000000000e+00    2.5643346786e+01
    0.0000000000e+00    2.7293312073e+01
    0.0000000000e+00    2.8943275452e+01
    0.0000000000e+00    3.0593242645e+01
    0.0000000000e+00    3.2243206024e+01
    0.0000000000e+00    3.3893173218e+01
    0.0000000000e+00    3.5543136597e+01
    0.0000000000e+00    3.7193099976e+01
    0.0000000000e+00    3.8843067169e+01
    0.0000000000e+00    4.0477245331e+01
    0.0000000000e+00    4.2066608429e+01
    0.0000000000e+00    4.3655971527e+01
    0.0000000000e+00    4.5245338440e+01
    0.0000000000e+00    4.6834701538e+01
    0.0000000000e+00    4.8424064636e+01
    0.0000000000e+00    5.0013427734e+01
    0.0000000000e+00    5.1602790833e+01
    0.0000000000e+00    5.3192153931e+01
    0.0000000000e+00    5.4781517029e+01
    0.0000000000e+00    5.6353096008e+01
    0.0000000000e+00    5.7876712799e+01
    0.0000000000e+00    5.9400333405e+01
    0.0000000000e+00    6.0923950195e+01
    0.0000000000e+00    6.2447566986e+01
    0.0000000000e+00    6.3971183777e+01
    0.0000000000e+00    6.5494804382e+01
    0.0000000000e+00    6.7018417358e+01
    0.0000000000e+00    6.8542037964e+01
    0.0000000000e+00    7.0065658569e+01
    0.0000000000e+00    7.1571640015e+01
    0.0000000000e+00    7.3032394409e+01
    0.0000000000e+00    7.4493156433e+01
    0.0000000000e+00    7.5953910828e+01
    0.0000000000e+00    7.7414672852e+01
    0.0000000000e+00    7.8875427246e+01
    0.0000000000e+00    8.0336189270e+01
    0.0000000000e+00    8.1796943665e+01
    0.0000000000e+00    8.3257705688e+01
    0.0000000000e+00    8.4718460083e+01
    0.0000000000e+00    8.6162864685e+01
    0.0000000000e+00    8.7567344666e+01
    0.0000000000e+00    8.8971824646e+01
    0.0000000000e+00    9.0376296997e+01
    0.0000000000e+00    9.1780776978e+01
    0.0000000000e+00    9.3185256958e+01
    0.0000000000e+00    9.4589736938e+01
    0.0000000000e+00    9.5994216919e+01
    0.0000000000e+00    9.7398696899e+01
    0.0000000000e+00    9.8803169250e+01
    0.0000000000e+00    1.0019139862e+02
    0.0000000000e+00    1.0154180908e+02
    0.0000000000e+00    1.0289222717e+02
    0.0000000000e+00    1.0424263763e+02
    0.0000000000e+00    1.0559305573e+02
    0.0000000000e+00    1.0694346619e+02
    0.0000000000e+00    1.0829388428e+02
    0.0000000000e+00    1.0964429474e+02
    0.0000000000e+00    1.1099471283e+02
    0.0000000000e+00    1.1234512329e+02
    0.0000000000e+00    1.1367978668e+02
    0.0000000000e+00    1.1497948456e+02
    0.0000000000e+00    1.1627919006e+02
    0.0000000000e+00    1.1757886505e+02
    0.0000000000e+00    1.1887854004e+02
    0.0000000000e+00    1.2017822266e+02
    0.0000000000e+00    1.2147789764e+02
    0.0000000000e+00    1.2277757263e+02
    0.0000000000e+00    1.2407724762e+02
    0.0000000000e+00    1.2537693024e+02
    0.0000000000e+00    1.2665998840e+02
    0.0000000000e+00    1.2790781403e+02
    0.0000000000e+00    1.2915563965e+02
    0.0000000000e+00    1.3040347290e+02
    0.0000000000e+00    1.3165130615e+02
    0.0000000000e+00    1.3289913940e+02
    0.0000000000e+00    1.3414697266e+02
    0.0000000000e+00    1.3539479065e+02
    0.0000000000e+00    1.3664262390e+02
    0.0000000000e+00    1.3789045715e+02
    0.0000000000e+00    1.3912498474e+02
    0.0000000000e+00    1.4033258057e+02
    0.0000000000e+00    1.4154016113e+02
    0.0000000000e+00    1.4274774170e+02
    0.0000000000e+00    1.4395533752e+02
    0.0000000000e+00    1.4516291809e+02
    0.0000000000e+00    1.4637051392e+02
    0.0000000000e+00    1.4757809448e+02
    0.0000000000e+00    1.4878567505e+02
    0.0000000000e+00    1.4999327087e+02
    0.0000000000e+00    1.5118638611e+02
    0.0000000000e+00    1.5235142517e+02
    0.0000000000e+00    1.5351647949e+02
    0.0000000000e+00    1.5468153381e+02
    0.0000000000e+00    1.5584657288e+02
    0.0000000000e+00    1.5701162720e+02
    0.0000000000e+00    1.5817668152e+02
    0.0000000000e+00    1.5934172058e+02
    0.0000000000e+00    1.6050677490e+02
    0.0000000000e+00    1.6167182922e+02
    0.0000000000e+00    1.6282286072e+02
    0.0000000000e+00    1.6394786072e+02
    0.0000000000e+00    1.6507287598e+02
    0.0000000000e+00    1.6619789124e+02
    0.0000000000e+00    1.6732289124e+02
    0.0000000000e+00    1.6844790649e+02
    0.0000000000e+00    1.6957292175e+02
    0.0000000000e+00    1.7069792175e+02
    0.0000000000e+00    1.7182293701e+02
    0.0000000000e+00    1.7294793701e+02
    0.0000000000e+00    1.7405932617e+02
    0.0000000000e+00    1.7514649963e+02
    0.0000000000e+00    1.7623367310e+02
    0.0000000000e+00    1.7732083130e+02
    0.0000000000e+00    1.7840800476e+02
    0.0000000000e+00    1.7949517822e+02
    0.0000000000e+00    1.8058235168e+02
    0.0000000000e+00    1.8166950989e+02
    0.0000000000e+00    1.8275668335e+02
    0.0000000000e+00    1.8384385681e+02
    0.0000000000e+00    1.8491784668e+02
    0.0000000000e+00    1.8596937561e+02
    0.0000000000e+00    1.8702091980e+02
    0.0000000000e+00    1.8807244873e+02
    0.0000000000e+00    1.8912399292e+02
    0.0000000000e+00    1.9017552185e+02
    0.0000000000e+00    1.9122706604e+02
    0.0000000000e+00    1.9227859497e+02
    0.0000000000e+00    1.9333013916e+02
    0.0000000000e+00    1.9438166809e+02
    0.0000000000e+00    1.9542031860e+02
    0.0000000000e+00    1.9643792725e+02
    0.0000000000e+00    1.9745552063e+02
    0.0000000000e+00    1.9847311401e+02
    0.0000000000e+00    1.9949072266e+02
    0.0000000000e+00    2.0050831604e+02
    0.0000000000e+00    2.0152592468e+02
    0.0000000000e+00    2.0254351807e+02
    0.0000000000e+00    2.0356112671e+02
    0.0000000000e+00    2.0457872009e+02
    0.0000000000e+00    2.0558540344e+02
    0.0000000000e+00    2.0657498169e+02
    0.0000000000e+00    2.0756455994e+02
    0.0000000000e+00    2.0855413818e+02
    0.0000000000e+00    2.0954371643e+02
    0.0000000000e+00    2.1053327942e+02
    0.0000000000e+00    2.1152285767e+02
    0.0000000000e+00    2.1251243591e+02
    0.0000000000e+00    2.1350201416e+02
    0.0000000000e+00    2.1449159241e+02
    0.0000000000e+00    2.1546730042e+02
    0.0000000000e+00    2.1642213440e+02
    0.0000000000e+00    2.1737696838e+02
    0.0000000000e+00    2.1833180237e+02
    0.0000000000e+00    2.1928665161e+02
    0.0000000000e+00    2.2024148560e+02
    0.0000000000e+00    2.2119631958e+02
    0.0000000000e+00    2.2215116882e+02
    0.0000000000e+00    2.2310600281e+02
    0.0000000000e+00    2.2406083679e+02
    0.0000000000e+00    2.2501408386e+02
    0.0000000000e+00    2.2596501160e+02
    0.0000000000e+00    2.2691595459e+02
    0.0000000000e+00    2.2786689758e+02
    0.0000000000e+00    2.2881782532e+02
    0.0000000000e+00    2.2976876831e+02
    0.0000000000e+00    2.3071971130e+02
    0.0000000000e+00    2.3167063904e+02
    0.0000000000e+00    2.3262158203e+02
    0.0000000000e+00    2.3357252502e+02
    0.0000000000e+00    2.3450915527e+02
    0.0000000000e+00    2.3542594910e+02
    0.0000000000e+00    2.3634275818e+02
    0.0000000000e+00    2.3725955200e+02
    0.0000000000e+00    2.3817636108e+02
    0.0000000000e+00    2.3909315491e+02
    0.0000000000e+00    2.4000996399e+02
    0.0000000000e+00    2.4092675781e+02
    0.0000000000e+00    2.4184355164e+02
    0.0000000000e+00    2.4276036072e+02
    0.0000000000e+00    2.4367033386e+02
    0.0000000000e+00    2.4457122803e+02
    0.0000000000e+00    2.4547210693e+02
    0.0000000000e+00    2.4637300110e+02
    0.0000000000e+00    2.4727389526e+02
    0.0000000000e+00    2.4817477417e+02
    0.0000000000e+00    2.4907566833e+02
    0.0000000000e+00    2.4997656250e+02
    0.0000000000e+00    2.5087744141e+02
    0.0000000000e+00    2.5177833557e+02
    0.0000000000e+00    2.5266999817e+02
    0.0000000000e+00    2.5354986572e+02
    0.0000000000e+00    2.5442973328e+02
    0.0000000000e+00    2.5530960083e+02
    0.0000000000e+00    2.5618945312e+02
    0.0000000000e+00    2.5706933594e+02
    0.0000000000e+00    2.5794918823e+02
    0.0000000000e+00    2.5882904053e+02
    0.0000000000e+00    2.5970892334e+02
    0.0000000000e+00    2.6058877563e+02
    0.0000000000e+00    2.6145941162e+02
    0.0000000000e+00    2.6231863403e+02
    0.0000000000e+00    2.6317788696e+02
    0.0000000000e+00    2.6403713989e+02
    0.0000000000e+00    2.6489639282e+02
    0.0000000000e+00    2.6575564575e+02
    0.0000000000e+00    2.6661486816e+02
    0.0000000000e+00    2.6747412109e+02
    0.0000000000e+00    2.6833337402e+02
    0.0000000000e+00    2.6919262695e+02
    0.0000000000e+00    2.7004272461e+02
    0.0000000000e+00    2.7088204956e+02
    0.0000000000e+00    2.7172137451e+02
    0.0000000000e+00    2.7256072998e+02
    0.0000000000e+00    2.7340005493e+02
    0.0000000000e+00    2.7423937988e+02
    0.0000000000e+00    2.7507870483e+02
    0.0000000000e+00    2.7591802979e+02
    0.0000000000e+00    2.7675735474e+02
    0.0000000000e+00    2.7759667969e+02
    0.0000000000e+00    2.7842697144e+02
    0.0000000000e+00    2.7924697876e+02
    0.0000000000e+00    2.8006698608e+02
    0.0000000000e+00    2.8088699341e+02
    0.0000000000e+00    2.8170700073e+02
    0.0000000000e+00    2.8252697754e+02
    0.0000000000e+00    2.8334698486e+02
    0.0000000000e+00    2.8416699219e+02
    0.0000000000e+00    2.8498699951e+02
    0.0000000000e+00    2.8580700684e+02
    0.0000000000e+00    2.8661807251e+02
    0.0000000000e+00    2.8741934204e+02
    0.0000000000e+00    2.8822064209e+02
    0.0000000000e+00    2.8902194214e+02
    0.0000000000e+00    2.8982324219e+02
    0.0000000000e+00    2.9062451172e+02
    0.0000000000e+00    2.9142581177e+02
    0.0000000000e+00    2.9222711182e+02
    0.0000000000e+00    2.9302838135e+02
    0.0000000000e+00    2.9382968140e+02
    0.0000000000e+00    2.9462219238e+02
    0.0000000000e+00    2.9540545654e+02
    0.0000000000e+00    2.9618872070e+02
    0.0000000000e+00    2.9697198486e+02
    0.0000000000e+00    2.9775524902e+02
    0.0000000000e+00    2.9853854370e+02
    0.0000000000e+00    2.9932180786e+02
    0.0000000000e+00    3.0010507202e+02
    0.0000000000e+00    3.0088833618e+02
    0.0000000000e+00    3.0167163086e+02
    0.0000000000e+00    3.0244625854e+02
    0.0000000000e+00    3.0321221924e+02
    0.0000000000e+00    3.0397817993e+02
    0.0000000000e+00    3.0474414062e+02
    0.0000000000e+00    3.0551010132e+02
    0.0000000000e+00    3.0627606201e+02
    0.0000000000e+00    3.0704199219e+02
    0.0000000000e+00    3.0780795288e+02
    0.0000000000e+00    3.0857391357e+02
    0.0000000000e+00    3.0933987427e+02
    0.0000000000e+00    3.1009735107e+02
    0.0000000000e+00    3.1084658813e+02
    0.0000000000e+00    3.1159582520e+02
    0.0000000000e+00    3.1234506226e+02
    0.0000000000e+00    3.1309426880e+02
    0.0000000000e+00    3.1384350586e+02
    0.0000000000e+00    3.1459274292e+02
    0.0000000000e+00    3.1534197998e+02
    0.0000000000e+00    3.1609121704e+02
    0.0000000000e+00    3.1684045410e+02
    0.0000000000e+00    3.1758142090e+02
    0.0000000000e+00    3.1831463623e+02
    0.0000000000e+00    3.1904785156e+02
    0.0000000000e+00    3.1978106689e+02
    0.0000000000e+00    3.2051431274e+02
    0.0000000000e+00    3.2124752808e+02
    0.0000000000e+00    3.2198074341e+02
    0.0000000000e+00    3.2271398926e+02
    0.0000000000e+00    3.2344720459e+02
    0.0000000000e+00    3.2418041992e+02
    0.0000000000e+00    3.2490557861e+02
    0.0000000000e+00    3.2562347412e+02
    0.0000000000e+00    3.2634136963e+02
    0.0000000000e+00    3.2705929565e+02
    0.0000000000e+00    3.2777719116e+02
    0.0000000000e+00    3.2849508667e+02
    0.0000000000e+00    3.2921301270e+02
    0.0000000000e+00    3.2993090820e+02
    0.0000000000e+00    3.3064880371e+02
    0.0000000000e+00    3.3136672974e+02
    0.0000000000e+00    3.3207672119e+02
    0.0000000000e+00    3.3277990723e+02
    0.0000000000e+00    3.3348309326e+02
    0.0000000000e+00    3.3418630981e+02
    0.0000000000e+00    3.3488949585e+02
    0.0000000000e+00    3.3559268188e+02
    0.0000000000e+00    3.3629586792e+02
    0.0000000000e+00    3.3699908447e+02
    0.0000000000e+00    3.3770227051e+02
    0.0000000000e+00    3.3840545654e+02
    0.0000000000e+00    3.3910092163e+02
    0.0000000000e+00    3.3979000854e+02
    0.0000000000e+00    3.4047909546e+02
    0.0000000000e+00    3.4116815186e+02
    0.0000000000e+00    3.4185723877e+02
    0.0000000000e+00    3.4254632568e+02
    0.0000000000e+00    3.4323538208e+02
    0.0000000000e+00    3.4392446899e+02
    0.0000000000e+00    3.4461355591e+02
    0.0000000000e+00    3.4530261230e+02
    0.0000000000e+00    3.4598422241e+02
    0.0000000000e+00    3.4665991211e+02
    0.0000000000e+00    3.4733557129e+02
    0.0000000000e+00    3.4801123047e+02
    0.0000000000e+00    3.4868688965e+02
    0.0000000000e+00    3.4936257935e+02
    0.0000000000e+00    3.5003823853e+02
    0.0000000000e+00    3.5071389771e+02
    0.0000000000e+00    3.5138955688e+02
    0.0000000000e+00    3.5206521606e+02
    0.0000000000e+00    3.5273358154e+02
    0.0000000000e+00    3.5339633179e+02
    0.0000000000e+00    3.5405908203e+02
    0.0000000000e+00    3.5472183228e+02
    0.0000000000e+00    3.5538458252e+02
    0.0000000000e+00    3.5604733276e+02
    0.0000000000e+00    3.5671011353e+02
    0.0000000000e+00    3.5737286377e+02
    0.0000000000e+00    3.5803561401e+02
    0.0000000000e+00    3.5869836426e+02
    0.0000000000e+00    3.5935406494e+02
    0.0000000000e+00    3.6000460815e+02
    0.0000000000e+00    3.6065515137e+02
    0.0000000000e+00    3.6130569458e+02
    0.0000000000e+00    3.6195623779e+02
    0.0000000000e+00    3.6260678101e+02
    0.0000000000e+00    3.6325729370e+02
    0.0000000000e+00    3.6390783691e+02
    0.0000000000e+00    3.6455838013e+02
    0.0000000000e+00    3.6520892334e+02
    0.0000000000e+00    3.6584747314e+02
    0.0000000000e+00    3.6647760010e+02
    0.0000000000e+00    3.6710772705e+02
    0.0000000000e+00    3.6773785400e+02
    0.0000000000e+00    3.6836798096e+02
    0.0000000000e+00    3.6899810791e+02
    0.0000000000e+00    3.6962823486e+02
    0.0000000000e+00    3.7025836182e+02
    0.0000000000e+00    3.7088845825e+02
    0.0000000000e+00    3.7151858521e+02
    0.0000000000e+00    3.7214709473e+02
    0.0000000000e+00    3.7277450562e+02
    0.0000000000e+00    3.7340191650e+02
    0.0000000000e+00    3.7402932739e+02
    0.0000000000e+00    3.7465676880e+02
    0.0000000000e+00    3.7528417969e+02
    0.0000000000e+00    3.7591159058e+02
    0.0000000000e+00    3.7653900146e+02
    0.0000000000e+00    3.7716641235e+02
    0.0000000000e+00    3.7779382324e+02
    0.0000000000e+00    3.7841506958e+02
    0.0000000000e+00    3.7903225708e+02
    0.0000000000e+00    3.7964947510e+02
    0.0000000000e+00    3.8026669312e+02
    0.0000000000e+00    3.8088391113e+02
    0.0000000000e+00    3.8150109863e+02
    0.0000000000e+00    3.8211831665e+02
    0.0000000000e+00    3.8273553467e+02
    0.0000000000e+00    3.8335272217e+02
    0.0000000000e+00    3.8396994019e+02
    0.0000000000e+00    3.8458093262e+02
    0.0000000000e+00    3.8518801880e+02
    0.0000000000e+00    3.8579513550e+02
    0.0000000000e+00    3.8640222168e+02
    0.0000000000e+00    3.8700930786e+02
    0.0000000000e+00    3.8761642456e+02
    0.0000000000e+00    3.8822351074e+02
    0.0000000000e+00    3.8883059692e+02
    0.0000000000e+00    3.8943771362e+02
    0.0000000000e+00    3.9004479980e+02
    0.0000000000e+00    3.9064593506e+02
    0.0000000000e+00    3.9124353027e+02
    0.0000000000e+00    3.9184112549e+02
    0.0000000000e+00    3.9243872070e+02
    0.0000000000e+00    3.9303628540e+02
    0.0000000000e+00    3.9363388062e+02
    0.0000000000e+00    3.9423147583e+02
    0.0000000000e+00    3.9482907104e+02
    0.0000000000e+00    3.9542663574e+02
    0.0000000000e+00    3.9602423096e+02
    0.0000000000e+00    3.9662106323e+02
    0.0000000000e+00    3.9721743774e+02
    0.0000000000e+00    3.9781384277e+02
    0.0000000000e+00    3.9841021729e+02
    0.0000000000e+00    3.9900662231e+02
    0.0000000000e+00    3.9960302734e+02
    0.0000000000e+00    4.0019940186e+02
    0.0000000000e+00    4.0079580688e+02
    0.0000000000e+00    4.0139218140e+02
    0.0000000000e+00    4.0198858643e+02
    0.0000000000e+00    4.0258068848e+02
    0.0000000000e+00    4.0317047119e+02
    0.0000000000e+00    4.0376025391e+02
    0.0000000000e+00    4.0435003662e+02
    0.0000000000e+00    4.0493981934e+02
    0.0000000000e+00    4.0552960205e+02
    0.0000000000e+00    4.0611938477e+02
    0.0000000000e+00    4.0670916748e+02
    0.0000000000e+00    4.0729895020e+02
    0.0000000000e+00    4.0788870239e+02
    0.0000000000e+00    4.0847317505e+02
    0.0000000000e+00    4.0905484009e+02
    0.0000000000e+00    4.0963653564e+02
    0.0000000000e+00    4.1021820068e+02
    0.0000000000e+00    4.1079986572e+02
    0.0000000000e+00    4.1138153076e+02
    0.0000000000e+00    4.1196322632e+02
    0.0000000000e+00    4.1254489136e+02
    0.0000000000e+00    4.1312655640e+02
    0.0000000000e+00    4.1370822144e+02
    0.0000000000e+00    4.1428530884e+02
    0.0000000000e+00    4.1486007690e+02
    0.0000000000e+00    4.1543484497e+02
    0.0000000000e+00    4.1600958252e+02
    0.0000000000e+00    4.1658435059e+02
    0.0000000000e+00    4.1715911865e+02
    0.0000000000e+00    4.1773388672e+02
    0.0000000000e+00    4.1830865479e+02
    0.0000000000e+00    4.1888339233e+02
    0.0000000000e+00    4.1945816040e+02
    0.0000000000e+00    4.2002868652e+02
    0.0000000000e+00    4.2059713745e+02
    0.0000000000e+00    4.2116561890e+02
    0.0000000000e+00    4.2173406982e+02
    0.0000000000e+00    4.2230252075e+02
    0.0000000000e+00    4.2287100220e+02
    0.0000000000e+00    4.2343945312e+02
    0.0000000000e+00    4.2400793457e+02
    0.0000000000e+00    4.2457638550e+02
    0.0000000000e+00    4.2514486694e+02
    0.0000000000e+00    4.2570941162e+02
    0.0000000000e+00    4.2627215576e+02
    0.0000000000e+00    4.2683493042e+02
    0.0000000000e+00    4.2739767456e+02
    0.0000000000e+00    4.2796041870e+02
    0.0000000000e+00    4.2852319336e+02
    0.0000000000e+00    4.2908593750e+02
    0.0000000000e+00    4.2964868164e+02
    0.0000000000e+00    4.3021142578e+02
    0.0000000000e+00    4.3077420044e+02
    0.0000000000e+00    4.3133340454e+02
    0.0000000000e+00    4.3189105225e+02
    0.0000000000e+00    4.3244869995e+02
    0.0000000000e+00    4.3300634766e+02
    0.0000000000e+00    4.3356399536e+02
    0.0000000000e+00    4.3412164307e+02
    0.0000000000e+00    4.3467929077e+02
    0.0000000000e+00    4.3523693848e+02
    0.0000000000e+00    4.3579455566e+02
    0.0000000000e+00    4.3635220337e+02
    0.0000000000e+00    4.3690655518e+02
    0.0000000000e+00    4.3745950317e+02
    0.0000000000e+00    4.3801245117e+02
    0.0000000000e+00    4.3856539917e+02
    0.0000000000e+00    4.3911834717e+02
    0.0000000000e+00    4.3967129517e+02
    0.0000000000e+00    4.4022421265e+02
    0.0000000000e+00    4.4077716064e+02
    0.0000000000e+00    4.4133010864e+02
    0.0000000000e+00    4.4188305664e+02
    0.0000000000e+00    4.4243313599e+02
    0.0000000000e+00    4.4298208618e+02
    0.0000000000e+00    4.4353103638e+02
    0.0000000000e+00    4.4407995605e+02
    0.0000000000e+00    4.4462890625e+02
    0.0000000000e+00    4.4517785645e+02
    0.0000000000e+00    4.4572677612e+02
    0.0000000000e+00    4.4627572632e+02
    0.0000000000e+00    4.4682467651e+02
    0.0000000000e+00    4.4737359619e+02
    0.0000000000e+00    4.4792007446e+02
    0.0000000000e+00    4.4846563721e+02
    0.0000000000e+00    4.4901116943e+02
    0.0000000000e+00    4.4955670166e+02
    0.0000000000e+00    4.5010223389e+02
    0.0000000000e+00    4.5064776611e+02
    0.0000000000e+00    4.5119329834e+02
    0.0000000000e+00    4.5173886108e+02
    0.0000000000e+00    4.5228439331e+02
    0.0000000000e+00    4.5282992554e+02
    0.0000000000e+00    4.5337341309e+02
    0.0000000000e+00    4.5391613770e+02
    0.0000000000e+00    4.5445886230e+02
    0.0000000000e+00    4.5500158691e+02
    0.0000000000e+00    4.5554434204e+02
    0.0000000000e+00    4.5608706665e+02
    0.0000000000e+00    4.5662979126e+02
    0.0000000000e+00    4.5717254639e+02
    0.0000000000e+00    4.5771527100e+02
    0.0000000000e+00    4.5825799561e+02
    0.0000000000e+00    4.5879910278e+02
    0.0000000000e+00    4.5933963013e+02
    0.0000000000e+00    4.5988015747e+02
    0.0000000000e+00    4.6042068481e+02
    0.0000000000e+00    4.6096124268e+02
    0.0000000000e+00    4.6150177002e+02
    0.0000000000e+00    4.6204229736e+02
    0.0000000000e+00    4.6258282471e+02
    0.0000000000e+00    4.6312338257e+02
    0.0000000000e+00    4.6366390991e+02
    0.0000000000e+00    4.6420336914e+02
    0.0000000000e+00    4.6474252319e+02
    0.0000000000e+00    4.6528164673e+02
    0.0000000000e+00    4.6582077026e+02
    0.0000000000e+00    4.6635989380e+02
    0.0000000000e+00    4.6689904785e+02
    0.0000000000e+00    4.6743817139e+02
    0.0000000000e+00    4.6797729492e+02
    0.0000000000e+00    4.6851641846e+02
    0.0000000000e+00    4.6905557251e+02
    0.0000000000e+00    4.6959414673e+02
    0.0000000000e+00    4.7013259888e+02
    0.0000000000e+00    4.7067102051e+02
    0.0000000000e+00    4.7120944214e+02
    0.0000000000e+00    4.7174786377e+02
    0.0000000000e+00    4.7228631592e+02
    0.0000000000e+00    4.7282473755e+02
    0.0000000000e+00    4.7336315918e+02
    0.0000000000e+00    4.7390158081e+02
    0.0000000000e+00    4.7444003296e+02
    0.0000000000e+00    4.7497845459e+02
    0.0000000000e+00    4.7551687622e+02
    0.0000000000e+00    4.7605529785e+02
    0.0000000000e+00    4.7659371948e+02
    0.0000000000e+00    4.7713217163e+02
    0.0000000000e+00    4.7767059326e+02
    0.0000000000e+00    4.7820901489e+02
    0.0000000000e+00    4.7874743652e+02
    0.0000000000e+00    4.7928588867e+02
    0.0000000000e+00    4.7982431030e+02
    0.0000000000e+00    4.8036337280e+02
    0.0000000000e+00    4.8090258789e+02
    0.0000000000e+00    4.8144183350e+02
    0.0000000000e+00    4.8198107910e+02
    0.0000000000e+00    4.8252029419e+02
    0.0000000000e+00    4.8305953979e+02
    0.0000000000e+00    4.8359875488e+02
    0.0000000000e+00    4.8413800049e+02
    0.0000000000e+00    4.8467721558e+02
    0.0000000000e+00    4.8521646118e+02
    0.0000000000e+00    4.8575735474e+02
    0.0000000000e+00    4.8629870605e+02
    0.0000000000e+00    4.8684002686e+02
    0.0000000000e+00    4.8738134766e+02
    0.0000000000e+00    4.8792269897e+02
    0.0000000000e+00    4.8846401978e+02
    0.0000000000e+00    4.8900534058e+02
    0.0000000000e+00    4.8954669189e+02
    0.0000000000e+00    4.9008801270e+02
    0.0000000000e+00    4.9062933350e+02
    0.0000000000e+00    4.9117324829e+02
    0.0000000000e+00    4.9171777344e+02
    0.0000000000e+00    4.9226229858e+02
    0.0000000000e+00    4.9280685425e+02
    0.0000000000e+00    4.9335137939e+02
    0.0000000000e+00    4.9389590454e+02
    0.0000000000e+00    4.9444046021e+02
    0.0000000000e+00    4.9498498535e+02
    0.0000000000e+00    4.9552951050e+02
    0.0000000000e+00    4.9607406616e+02
    0.0000000000e+00    4.9662405396e+02
    0.0000000000e+00    4.9717529297e+02
    0.0000000000e+00    4.9772653198e+02
    0.0000000000e+00    4.9827780151e+02
    0.0000000000e+00    4.9882904053e+02
    0.0000000000e+00    4.9938027954e+02
    0.0000000000e+00    4.9993154907e+02
    0.0000000000e+00    5.0048278809e+02
    0.0000000000e+00    5.0103402710e+02
    0.0000000000e+00    5.0158526611e+02
    0.0000000000e+00    5.0214334106e+02
    0.0000000000e+00    5.0270291138e+02
    0.0000000000e+00    5.0326245117e+02
    0.0000000000e+00    5.0382199097e+02
    0.0000000000e+00    5.0438156128e+02
    0.0000000000e+00    5.0494110107e+02
    0.0000000000e+00    5.0550064087e+02
    0.0000000000e+00    5.0606021118e+02
    0.0000000000e+00    5.0661975098e+02
    0.0000000000e+00    5.0717929077e+02
    0.0000000000e+00    5.0774368286e+02
    0.0000000000e+00    5.0830905151e+02
    0.0000000000e+00    5.0887438965e+02
    0.0000000000e+00    5.0943975830e+02
    0.0000000000e+00    5.1000509644e+02
    0.0000000000e+00    5.1057046509e+02
    0.0000000000e+00    5.1113583374e+02
    0.0000000000e+00    5.1170117188e+02
    0.0000000000e+00    5.1226654053e+02
    0.0000000000e+00    5.1283190918e+02
    0.0000000000e+00    5.1340417480e+02
    0.0000000000e+00    5.1397772217e+02
    0.0000000000e+00    5.1455126953e+02
    0.0000000000e+00    5.1512481689e+02
    0.0000000000e+00    5.1569842529e+02
    0.0000000000e+00    5.1627197266e+02
    0.0000000000e+00    5.1684552002e+02
    0.0000000000e+00    5.1741906738e+02
    0.0000000000e+00    5.1799267578e+02
    0.0000000000e+00    5.1856622314e+02
    0.0000000000e+00    5.1915155029e+02
    0.0000000000e+00    5.1973895264e+02
    0.0000000000e+00    5.2032629395e+02
    0.0000000000e+00    5.2091369629e+02
    0.0000000000e+00    5.2150109863e+02
    0.0000000000e+00    5.2208843994e+02
    0.0000000000e+00    5.2267584229e+02
    0.0000000000e+00    5.2326318359e+02
    0.0000000000e+00    5.2385058594e+02
    0.0000000000e+00    5.2443798828e+02
    0.0000000000e+00    5.2505285645e+02
    0.0000000000e+00    5.2567218018e+02
    0.0000000000e+00    5.2629150391e+02
    0.0000000000e+00    5.2691082764e+02
    0.0000000000e+00    5.2753009033e+02
    0.0000000000e+00    5.2814941406e+02
    0.0000000000e+00    5.2876873779e+02
    0.0000000000e+00    5.2938806152e+02
    0.0000000000e+00    5.3000732422e+02
    0.0000000000e+00    5.3062664795e+02
    0.0000000000e+00    5.3127441406e+02
    0.0000000000e+00    5.3192639160e+02
    0.0000000000e+00    5.3257830811e+02
    0.0000000000e+00    5.3323022461e+02
    0.0000000000e+00    5.3388220215e+02
    0.0000000000e+00    5.3453411865e+02
    0.0000000000e+00    5.3518603516e+02
    0.0000000000e+00    5.3583801270e+02
    0.0000000000e+00    5.3648992920e+02
    0.0000000000e+00    5.3714190674e+02
    0.0000000000e+00    5.3781359863e+02
    0.0000000000e+00    5.3848797607e+02
    0.0000000000e+00    5.3916229248e+02
    0.0000000000e+00    5.3983666992e+02
    0.0000000000e+00    5.4051104736e+02
    0.0000000000e+00    5.4118542480e+02
    0.0000000000e+00    5.4185980225e+02
    0.0000000000e+00    5.4253411865e+02
    0.0000000000e+00    5.4320849609e+02
    0.0000000000e+00    5.4388287354e+02
    0.0000000000e+00    5.4459283447e+02
    0.0000000000e+00    5.4530712891e+02
    0.0000000000e+00    5.4602142334e+02
    0.0000000000e+00    5.4673577881e+02
    0.0000000000e+00    5.4745007324e+02
    0.0000000000e+00    5.4816436768e+02
    0.0000000000e+00    5.4887866211e+02
    0.0000000000e+00    5.4959295654e+02
    0.0000000000e+00    5.5030725098e+02
    0.0000000000e+00    5.5102160645e+02
    0.0000000000e+00    5.5184741211e+02
    0.0000000000e+00    5.5268542480e+02
    0.0000000000e+00    5.5352343750e+02
    0.0000000000e+00    5.5436151123e+02
    0.0000000000e+00    5.5519952393e+02
    0.0000000000e+00    5.5603753662e+02
    0.0000000000e+00    5.5687554932e+02
    0.0000000000e+00    5.5771356201e+02
    0.0000000000e+00    5.5855163574e+02
    0.0000000000e+00    5.5938964844e+02
    0.0000000000e+00    5.6020214844e+02
    0.0000000000e+00    5.6101214600e+02
    0.0000000000e+00    5.6182214355e+02
    0.0000000000e+00    5.6263214111e+02
    0.0000000000e+00    5.6344213867e+02
    0.0000000000e+00    5.6425213623e+02
    0.0000000000e+00    5.6506213379e+02
    0.0000000000e+00    5.6587213135e+02
    0.0000000000e+00    5.6668212891e+02
    0.0000000000e+00    5.6749212646e+02
    0.0000000000e+00    5.6857012939e+02
    0.0000000000e+00    5.6967114258e+02
    0.0000000000e+00    5.7077209473e+02
    0.0000000000e+00    5.7187310791e+02
    0.0000000000e+00    5.7297412109e+02
    0.0000000000e+00    5.7407507324e+02
    0.0000000000e+00    5.7517608643e+02
    0.0000000000e+00    5.7627703857e+02
    0.0000000000e+00    5.7737805176e+02
    0.0000000000e+00    5.7847900391e+02
    0.0000000000e+00    5.7978308105e+02
    0.0000000000e+00    5.8110217285e+02
    0.0000000000e+00    5.8242126465e+02
    0.0000000000e+00    5.8374035645e+02
    0.0000000000e+00    5.8505944824e+02
    0.0000000000e+00    5.8637854004e+02
    0.0000000000e+00    5.8769763184e+02
    0.0000000000e+00    5.8901672363e+02
    0.0000000000e+00    5.9033581543e+02
    0.0000000000e+00    5.9165490723e+02
    0.0000000000e+00    5.9328533936e+02
    0.0000000000e+00    5.9493536377e+02
    0.0000000000e+00    5.9658538818e+02
    0.0000000000e+00    5.9823541260e+02
    0.0000000000e+00    5.9988543701e+02
    0.0000000000e+00    6.0153546143e+02
    0.0000000000e+00    6.0318548584e+02
    0.0000000000e+00    6.0483551025e+02
    0.0000000000e+00    6.0648553467e+02
    0.0000000000e+00    6.0813555908e+02
    0.0000000000e+00    6.1022796631e+02
    0.0000000000e+00    6.1234332275e+02
    0.0000000000e+00    6.1445874023e+02
    0.0000000000e+00    6.1657409668e+02
    0.0000000000e+00    6.1868945312e+02
    0.0000000000e+00    6.2080487061e+02
    0.0000000000e+00    6.2292022705e+02
    0.0000000000e+00    6.2503558350e+02
    0.0000000000e+00    6.2715100098e+02
    0.0000000000e+00    6.2926635742e+02
    0.0000000000e+00    6.3187316895e+02
    0.0000000000e+00    6.3450012207e+02
    0.0000000000e+00    6.3712713623e+02
    0.0000000000e+00    6.3975415039e+02
    0.0000000000e+00    6.4238116455e+02
    0.0000000000e+00    6.4500817871e+02
    0.0000000000e+00    6.4763519287e+02
    0.0000000000e+00    6.5026214600e+02
    0.0000000000e+00    6.5288916016e+02
    0.0000000000e+00    6.5551617432e+02
    0.0000000000e+00    6.5860589600e+02
    0.0000000000e+00    6.6170971680e+02
    0.0000000000e+00    6.6481359863e+02
    0.0000000000e+00    6.6791741943e+02
    0.0000000000e+00    6.7102130127e+02
    0.0000000000e+00    6.7412512207e+02
    0.0000000000e+00    6.7722900391e+02
    0.0000000000e+00    6.8033282471e+02
    0.0000000000e+00    6.8343670654e+02
    0.0000000000e+00    6.8654052734e+02
    0.0000000000e+00    6.9006353760e+02
    0.0000000000e+00    6.9359503174e+02
    0.0000000000e+00    6.9712646484e+02
    0.0000000000e+00    7.0065795898e+02
    0.0000000000e+00    7.0418945312e+02
    0.0000000000e+00    7.0772088623e+02
    0.0000000000e+00    7.1125238037e+02
    0.0000000000e+00    7.1478387451e+02
    0.0000000000e+00    7.1831530762e+02
    0.0000000000e+00    7.2188201904e+02
endcurve
