Curveplot
LS-DYNA keyword deck by LS-PrePost
Time
Internal Energy
Component
Internal Energy #pts=101
* Minval=     1.9999999365e-20 at time=         0.0000000000
* Maxval=     7.2188201904e+02 at time=         0.0500000007
    0.0000000000e+00    1.9999999365e-20
    5.0000002375e-04    5.1905298606e-03
    1.0000000475e-03    2.0748000592e-02
    1.5000000130e-03    4.6651199460e-02
    2.0000000950e-03    8.2878999412e-02
    2.4999999441e-03    1.2940999866e-01
    3.0000000261e-03    1.8622399867e-01
    3.5000001080e-03    2.5329801440e-01
    4.0000001900e-03    3.3061298728e-01
    4.4999998063e-03    4.1814801097e-01
    4.9999998882e-03    5.1587998867e-01
    5.4999999702e-03    6.2379002571e-01
    6.0000000522e-03    7.4185597897e-01
    6.5000001341e-03    8.7005800009e-01
    7.0000002161e-03    1.0083700418e+00
    7.4999998324e-03    1.1567900181e+00
    8.0000003800e-03    1.3152699471e+00
    8.5000004619e-03    1.4838099480e+00
    8.9999996126e-03    1.6623799801e+00
    9.4999996945e-03    1.8760499954e+00
    9.9999997765e-03    2.1244499683e+00
    1.0499999858e-02    2.4173200130e+00
    1.0999999940e-02    3.0471799374e+00
    1.1500000022e-02    4.3442602158e+00
    1.2000000104e-02    8.1998500824e+00
    1.2500000186e-02    2.3580099106e+01
    1.3000000268e-02    4.0063201904e+01
    1.3500000350e-02    5.5940898895e+01
    1.4000000432e-02    7.1161796570e+01
    1.4499999583e-02    8.5754699707e+01
    1.4999999665e-02    9.9785400391e+01
    1.5499999747e-02    1.1327600098e+02
    1.6000000760e-02    1.2626000214e+02
    1.6499999911e-02    1.3872599792e+02
    1.7000000924e-02    1.5078999329e+02
    1.7500000075e-02    1.6242900085e+02
    1.7999999225e-02    1.7366799927e+02
    1.8500000238e-02    1.8452900696e+02
    1.8999999389e-02    1.9503399658e+02
    1.9500000402e-02    2.0519999695e+02
    1.9999999553e-02    2.1508599854e+02
    2.0500000566e-02    2.2462500000e+02
    2.0999999717e-02    2.3412500000e+02
    2.1500000730e-02    2.4328399658e+02
    2.1999999881e-02    2.5228399658e+02
    2.2500000894e-02    2.6107400513e+02
    2.3000000045e-02    2.6965798950e+02
    2.3499999195e-02    2.7804299927e+02
    2.4000000209e-02    2.8623498535e+02
    2.4499999359e-02    2.9423999023e+02
    2.5000000373e-02    3.0206500244e+02
    2.5499999523e-02    3.0971701050e+02
    2.6000000536e-02    3.1720199585e+02
    2.6499999687e-02    3.2452700806e+02
    2.7000000700e-02    3.3169900513e+02
    2.7499999851e-02    3.3872399902e+02
    2.8000000864e-02    3.4560800171e+02
    2.8500000015e-02    3.5235800171e+02
    2.8999999166e-02    3.5897900391e+02
    2.9500000179e-02    3.6547799683e+02
    2.9999999329e-02    3.7177301025e+02
    3.0500000343e-02    3.7804098511e+02
    3.0999999493e-02    3.8420700073e+02
    3.1500000507e-02    3.9027200317e+02
    3.2000001520e-02    3.9624200439e+02
    3.2499998808e-02    4.0220001221e+02
    3.2999999821e-02    4.0809201050e+02
    3.3500000834e-02    4.1390301514e+02
    3.4000001848e-02    4.1964498901e+02
    3.4499999136e-02    4.2532400513e+02
    3.5000000149e-02    4.3094601440e+02
    3.5500001162e-02    4.3651699829e+02
    3.5999998450e-02    4.4204098511e+02
    3.6499999464e-02    4.4752499390e+02
    3.7000000477e-02    4.5297500610e+02
    3.7500001490e-02    4.5839700317e+02
    3.7999998778e-02    4.6379699707e+02
    3.8499999791e-02    4.6918301392e+02
    3.9000000805e-02    4.7456201172e+02
    3.9500001818e-02    4.7994100952e+02
    3.9999999106e-02    4.8532800293e+02
    4.0500000119e-02    4.9073599243e+02
    4.1000001132e-02    4.9617599487e+02
    4.1499998420e-02    5.0168301392e+02
    4.1999999434e-02    5.0727301025e+02
    4.2500000447e-02    5.1292102051e+02
    4.3000001460e-02    5.1865100098e+02
    4.3499998748e-02    5.2451898193e+02
    4.3999999762e-02    5.3070599365e+02
    4.4500000775e-02    5.3721899414e+02
    4.5000001788e-02    5.4395599365e+02
    4.5499999076e-02    5.5109197998e+02
    4.6000000089e-02    5.5946398926e+02
    4.6500001103e-02    5.6755603027e+02
    4.6999998391e-02    5.7855499268e+02
    4.7499999404e-02    5.9173297119e+02
    4.8000000417e-02    6.0821697998e+02
    4.8500001431e-02    6.2934997559e+02
    4.8999998719e-02    6.5559399414e+02
    4.9499999732e-02    6.8660198975e+02
    5.0000000745e-02    7.2188201904e+02
endcurve
