Curveplot
LS-DYNA keyword deck by LS-PrePost
Time
Kinetic Energy
Component
Kinetic Energy #pts=101
* Minval=     0.0000000000e+00 at time=         0.0000000000
* Maxval=     0.0000000000e+00 at time=         0.0000000000
    0.0000000000e+00    0.0000000000e+00
    5.0000002375e-04    0.0000000000e+00
    1.0000000475e-03    0.0000000000e+00
    1.5000000130e-03    0.0000000000e+00
    2.0000000950e-03    0.0000000000e+00
    2.4999999441e-03    0.0000000000e+00
    3.0000000261e-03    0.0000000000e+00
    3.5000001080e-03    0.0000000000e+00
    4.0000001900e-03    0.0000000000e+00
    4.4999998063e-03    0.0000000000e+00
    4.9999998882e-03    0.0000000000e+00
    5.4999999702e-03    0.0000000000e+00
    6.0000000522e-03    0.0000000000e+00
    6.5000001341e-03    0.0000000000e+00
    7.0000002161e-03    0.0000000000e+00
    7.4999998324e-03    0.0000000000e+00
    8.0000003800e-03    0.0000000000e+00
    8.5000004619e-03    0.0000000000e+00
    8.9999996126e-03    0.0000000000e+00
    9.4999996945e-03    0.0000000000e+00
    9.9999997765e-03    0.0000000000e+00
    1.0499999858e-02    0.0000000000e+00
    1.0999999940e-02    0.0000000000e+00
    1.1500000022e-02    0.0000000000e+00
    1.2000000104e-02    0.0000000000e+00
    1.2500000186e-02    0.0000000000e+00
    1.3000000268e-02    0.0000000000e+00
    1.3500000350e-02    0.0000000000e+00
    1.4000000432e-02    0.0000000000e+00
    1.4499999583e-02    0.0000000000e+00
    1.4999999665e-02    0.0000000000e+00
    1.5499999747e-02    0.0000000000e+00
    1.6000000760e-02    0.0000000000e+00
    1.6499999911e-02    0.0000000000e+00
    1.7000000924e-02    0.0000000000e+00
    1.7500000075e-02    0.0000000000e+00
    1.7999999225e-02    0.0000000000e+00
    1.8500000238e-02    0.0000000000e+00
    1.8999999389e-02    0.0000000000e+00
    1.9500000402e-02    0.0000000000e+00
    1.9999999553e-02    0.0000000000e+00
    2.0500000566e-02    0.0000000000e+00
    2.0999999717e-02    0.0000000000e+00
    2.1500000730e-02    0.0000000000e+00
    2.1999999881e-02    0.0000000000e+00
    2.2500000894e-02    0.0000000000e+00
    2.3000000045e-02    0.0000000000e+00
    2.3499999195e-02    0.0000000000e+00
    2.4000000209e-02    0.0000000000e+00
    2.4499999359e-02    0.0000000000e+00
    2.5000000373e-02    0.0000000000e+00
    2.5499999523e-02    0.0000000000e+00
    2.6000000536e-02    0.0000000000e+00
    2.6499999687e-02    0.0000000000e+00
    2.7000000700e-02    0.0000000000e+00
    2.7499999851e-02    0.0000000000e+00
    2.8000000864e-02    0.0000000000e+00
    2.8500000015e-02    0.0000000000e+00
    2.8999999166e-02    0.0000000000e+00
    2.9500000179e-02    0.0000000000e+00
    2.9999999329e-02    0.0000000000e+00
    3.0500000343e-02    0.0000000000e+00
    3.0999999493e-02    0.0000000000e+00
    3.1500000507e-02    0.0000000000e+00
    3.2000001520e-02    0.0000000000e+00
    3.2499998808e-02    0.0000000000e+00
    3.2999999821e-02    0.0000000000e+00
    3.3500000834e-02    0.0000000000e+00
    3.4000001848e-02    0.0000000000e+00
    3.4499999136e-02    0.0000000000e+00
    3.5000000149e-02    0.0000000000e+00
    3.5500001162e-02    0.0000000000e+00
    3.5999998450e-02    0.0000000000e+00
    3.6499999464e-02    0.0000000000e+00
    3.7000000477e-02    0.0000000000e+00
    3.7500001490e-02    0.0000000000e+00
    3.7999998778e-02    0.0000000000e+00
    3.8499999791e-02    0.0000000000e+00
    3.9000000805e-02    0.0000000000e+00
    3.9500001818e-02    0.0000000000e+00
    3.9999999106e-02    0.0000000000e+00
    4.0500000119e-02    0.0000000000e+00
    4.1000001132e-02    0.0000000000e+00
    4.1499998420e-02    0.0000000000e+00
    4.1999999434e-02    0.0000000000e+00
    4.2500000447e-02    0.0000000000e+00
    4.3000001460e-02    0.0000000000e+00
    4.3499998748e-02    0.0000000000e+00
    4.3999999762e-02    0.0000000000e+00
    4.4500000775e-02    0.0000000000e+00
    4.5000001788e-02    0.0000000000e+00
    4.5499999076e-02    0.0000000000e+00
    4.6000000089e-02    0.0000000000e+00
    4.6500001103e-02    0.0000000000e+00
    4.6999998391e-02    0.0000000000e+00
    4.7499999404e-02    0.0000000000e+00
    4.8000000417e-02    0.0000000000e+00
    4.8500001431e-02    0.0000000000e+00
    4.8999998719e-02    0.0000000000e+00
    4.9499999732e-02    0.0000000000e+00
    5.0000000745e-02    0.0000000000e+00
endcurve
