$# LS-DYNA Keyword file created by LS-PrePost(R) V4.2 - 09Jan2016(11:00)
$# Created on Apr-05-2016 (10:45:31)
*KEYWORD
*TITLE
$#                                                                         title
Eigenvalue tire
*CONTROL_IMPLICIT_EIGENVALUE
$#    neig    center     lflag    lftend     rflag    rhtend    eigmth    shfscl
        10       0.0         0-1.0000E29         01.00000E29         2       0.0
$#  isolid     ibeam    ishell   itshell    mstres    evdump      
         0         0         0         0         0         0
*CONTROL_IMPLICIT_GENERAL
$#  imflag       dt0    imform      nsbs       igs     cnstn      form    zero_v
         1       0.0         2         1         2         0         0         0
*BOUNDARY_SPC_SET_ID
$#      id                                                               heading
         0Fixed
$#    nsid       cid      dofx      dofy      dofz     dofrx     dofry     dofrz
         1         0         1         1         1         1         1         1
*SET_NODE_LIST_TITLE
Fixed node set
$#     sid       da1       da2       da3       da4    solver      
         1       0.0       0.0       0.0       0.0MECH
$#    nid1      nid2      nid3      nid4      nid5      nid6      nid7      nid8
       732       747       748       733       421       423       356       357
       341       342       343       344       359       358       427       425
       749       750       734       735       751       736       429       360
       345         0         0         0         0         0         0         0
*PART
$#                                                                         title
Tire
$#     pid     secid       mid     eosid      hgid      grav    adpopt      tmid
         1         1         1         0         0         0         0         0
*SECTION_SHELL_TITLE
Tire
$#   secid    elform      shrf       nip     propt   qr/irid     icomp     setyp
         1        16       1.0         2       1.0         0         0         1
$#      t1        t2        t3        t4      nloc     marea      idof    edgset
       4.0       4.0       4.0       4.0       0.0       0.0       0.0         0
*MAT_ELASTIC_TITLE
Tire - Rubber
$#     mid        ro         e        pr        da        db  not used        
         19.1000E-10      50.00.30000001       0.0       0.0         0
*PART
$#                                                                         title
Wheel
$#     pid     secid       mid     eosid      hgid      grav    adpopt      tmid
         2         2         3         0         0         0         0         0
*SECTION_SHELL_TITLE
Wheel
$#   secid    elform      shrf       nip     propt   qr/irid     icomp     setyp
         2        16       1.0         2       1.0         0         0         1
$#      t1        t2        t3        t4      nloc     marea      idof    edgset
       3.0       3.0       3.0       3.0       0.0       0.0       0.0         0
*MAT_RIGID_TITLE
Wheel - Steel RIGID
$#     mid        ro         e        pr         n    couple         m     alias
         37.85000E-9  210000.00.30000001       0.0       0.0       0.0          
$#     cmo      con1      con2    
       0.0         0         0
$#lco or a1        a2        a3        v1        v2        v3  
       0.0       0.0       0.0       0.0       0.0       0.0
*PART
$#                                                                         title
Belt
$#     pid     secid       mid     eosid      hgid      grav    adpopt      tmid
         3         3         2         0         0         0         0         0
*SECTION_SHELL_TITLE
Belt
$#   secid    elform      shrf       nip     propt   qr/irid     icomp     setyp
         3        16       1.0         2       1.0         0         0         1
$#      t1        t2        t3        t4      nloc     marea      idof    edgset
      2.25      2.25      2.25      2.25       0.0       0.0       0.0         0
*MAT_ELASTIC_TITLE
Belt - Steel
$#     mid        ro         e        pr        da        db  not used        
         27.85000E-9  210000.00.30000001       0.0       0.0         0
*ELEMENT_SHELL
$#   eid     pid      n1      n2      n3      n4      n5      n6      n7      n8
       1       1     418     420      56      55       0       0       0       0
       2       1      55      56      71      70       0       0       0       0
       3       1      70      71      86      85       0       0       0       0
       4       1      85      86     101     100       0       0       0       0
       5       1     100     101     116     115       0       0       0       0
       6       1     115     116     131     130       0       0       0       0
       7       1     130     131     146     145       0       0       0       0
       8       1     145     146     161     160       0       0       0       0
       9       1     160     161     176     175       0       0       0       0
      10       1     175     176     191     190       0       0       0       0
      11       1     190     191     206     205       0       0       0       0
      12       1     205     206     221     220       0       0       0       0
      13       1     220     221     236     235       0       0       0       0
      14       1     235     236     251     250       0       0       0       0
      15       1     250     251     266     265       0       0       0       0
      16       1     265     266     281     280       0       0       0       0
      17       1     280     281     296     295       0       0       0       0
      18       1     295     296     311     310       0       0       0       0
      19       1     310     311     326     325       0       0       0       0
      20       1     325     326     341     340       0       0       0       0
$ ... 1316 like lines cut
*NODE
$#   nid               x               y               z      tc      rc  
       1     1247.952026        -670.763      451.419586       0       0
       2     1248.025024     -696.763977      449.116302       0       0
       3     1248.279053     -720.705017      441.112793       0       0
       4     1248.526001     -743.028015      433.326111       0       0
       5     1248.477051     -769.182983      434.885406       0       0
       6     1247.953003     -784.815979      451.407898       0       0
       7     1247.855957     -805.919006      454.445496       0       0
       8     1258.637939     -805.919006      114.535202       0       0
       9     1258.541992     -784.815979      117.572899       0       0
      10     1258.017944     -769.182983      134.095398       0       0
      11     1257.968018     -743.028015      135.654694       0       0
      12     1258.214966     -720.705017      127.867996       0       0
      13     1258.468994     -696.763977      119.864502       0       0
      14     1258.541992        -670.763      117.561203       0       0
      15     1421.244019     -800.577026      301.145294       0       0
      16     1416.348999     -780.596985      300.470306       0       0
      17     1401.769043     -767.184021      298.912109       0       0
      18     1400.999023     -745.064026      298.756195       0       0
      19     1408.383057     -722.656982      299.508789       0       0
      20     1416.880005     -698.958008      300.475891       0       0
$ ... 1050 like lines cut
*END
