 LS-DYNA keyword deck by LS-PrePost                                      
                         ls-dyna smp.123264 s           date 01/12/2018

 n o d a l   f o r c e/e n e r g y    o u t p u t  t=   2.82493E-07

 pressure boundary condition forces 

 nd#       1  xforce=   0.0000E+00   yforce=   0.0000E+00  zforce=   0.0000E+00   energy=   0.0000E+00
 nd#      11  xforce=   0.0000E+00   yforce=   0.0000E+00  zforce=   0.0000E+00   energy=   0.0000E+00
 nd#      23  xforce=   0.0000E+00   yforce=   0.0000E+00  zforce=   0.0000E+00   energy=   0.0000E+00
              xtotal=   0.0000E+00   ytotal=   0.0000E+00  ztotal=   0.0000E+00   etotal=   0.0000E+00

 n o d a l   f o r c e/e n e r g y    o u t p u t  t=   5.08488E-06

 pressure boundary condition forces 

 nd#       1  xforce=   0.1241E-03   yforce=   0.2401E-03  zforce=   0.0000E+00   energy=   0.4083E-11
 nd#      11  xforce=   0.2401E-03   yforce=   0.2401E-03  zforce=   0.0000E+00   energy=   0.1960E-11
 nd#      23  xforce=   0.2401E-03   yforce=   0.1241E-03  zforce=   0.0000E+00   energy=   0.4083E-11
              xtotal=   0.6043E-03   ytotal=   0.6043E-03  ztotal=   0.0000E+00   etotal=   0.1013E-10

 n o d a l   f o r c e/e n e r g y    o u t p u t  t=   1.01698E-05

 pressure boundary condition forces 

 nd#       1  xforce=   0.3672E-03   yforce=   0.4944E-03  zforce=   0.0000E+00   energy=   0.4632E-10
 nd#      11  xforce=   0.4944E-03   yforce=   0.4944E-03  zforce=   0.0000E+00   energy=   0.5421E-11
 nd#      23  xforce=   0.4944E-03   yforce=   0.3672E-03  zforce=   0.0000E+00   energy=   0.4632E-10
              xtotal=   0.1356E-02   ytotal=   0.1356E-02  ztotal=   0.0000E+00   etotal=   0.9806E-10

 n o d a l   f o r c e/e n e r g y    o u t p u t  t=   1.52546E-05

 pressure boundary condition forces 

 nd#       1  xforce=   0.8181E-03   yforce=   0.7486E-03  zforce=   0.0000E+00   energy=   0.2008E-09
 nd#      11  xforce=   0.7486E-03   yforce=   0.7486E-03  zforce=   0.0000E+00   energy=   0.1725E-10
 nd#      23  xforce=   0.7486E-03   yforce=   0.8181E-03  zforce=   0.0000E+00   energy=   0.2008E-09
              xtotal=   0.2315E-02   ytotal=   0.2315E-02  ztotal=   0.0000E+00   etotal=   0.4189E-09

 n o d a l   f o r c e/e n e r g y    o u t p u t  t=   2.00570E-05

 pressure boundary condition forces 

 nd#       1  xforce=   0.1400E-02   yforce=   0.9887E-03  zforce=   0.0000E+00   energy=   0.4923E-09
 nd#      11  xforce=   0.9887E-03   yforce=   0.9887E-03  zforce=   0.0000E+00   energy=   0.3331E-10
 nd#      23  xforce=   0.9887E-03   yforce=   0.1400E-02  zforce=   0.0000E+00   energy=   0.4923E-09
              xtotal=   0.3378E-02   ytotal=   0.3378E-02  ztotal=   0.0000E+00   etotal=   0.1018E-08

 n o d a l   f o r c e/e n e r g y    o u t p u t  t=   2.51419E-05

 pressure boundary condition forces 

 nd#       1  xforce=   0.2103E-02   yforce=   0.1243E-02  zforce=   0.0000E+00   energy=   0.9313E-09
 nd#      11  xforce=   0.1243E-02   yforce=   0.1243E-02  zforce=   0.0000E+00   energy=   0.5273E-10
 nd#      23  xforce=   0.1243E-02   yforce=   0.2103E-02  zforce=   0.0000E+00   energy=   0.9313E-09
              xtotal=   0.4589E-02   ytotal=   0.4589E-02  ztotal=   0.0000E+00   etotal=   0.1915E-08

 n o d a l   f o r c e/e n e r g y    o u t p u t  t=   3.02268E-05

 pressure boundary condition forces 

 nd#       1  xforce=   0.2714E-02   yforce=   0.1497E-02  zforce=   0.0000E+00   energy=   0.1408E-08
 nd#      11  xforce=   0.1497E-02   yforce=   0.1497E-02  zforce=   0.0000E+00   energy=   0.8488E-10
 nd#      23  xforce=   0.1497E-02   yforce=   0.2714E-02  zforce=   0.0000E+00   energy=   0.1408E-08
              xtotal=   0.5708E-02   ytotal=   0.5708E-02  ztotal=   0.0000E+00   etotal=   0.2901E-08

 n o d a l   f o r c e/e n e r g y    o u t p u t  t=   3.50292E-05

 pressure boundary condition forces 

 nd#       1  xforce=   0.3140E-02   yforce=   0.1737E-02  zforce=   0.0000E+00   energy=   0.1759E-08
 nd#      11  xforce=   0.1737E-02   yforce=   0.1737E-02  zforce=   0.0000E+00   energy=   0.1053E-09
 nd#      23  xforce=   0.1737E-02   yforce=   0.3140E-02  zforce=   0.0000E+00   energy=   0.1759E-08
              xtotal=   0.6614E-02   ytotal=   0.6614E-02  ztotal=   0.0000E+00   etotal=   0.3624E-08

 n o d a l   f o r c e/e n e r g y    o u t p u t  t=   4.01140E-05

 pressure boundary condition forces 

 nd#       1  xforce=   0.3398E-02   yforce=   0.1992E-02  zforce=   0.0000E+00   energy=   0.1953E-08
 nd#      11  xforce=   0.1992E-02   yforce=   0.1992E-02  zforce=   0.0000E+00   energy=   0.1290E-09
 nd#      23  xforce=   0.1992E-02   yforce=   0.3398E-02  zforce=   0.0000E+00   energy=   0.1953E-08
              xtotal=   0.7381E-02   ytotal=   0.7381E-02  ztotal=   0.0000E+00   etotal=   0.4036E-08

 n o d a l   f o r c e/e n e r g y    o u t p u t  t=   4.51989E-05

 pressure boundary condition forces 

 nd#       1  xforce=   0.3529E-02   yforce=   0.2246E-02  zforce=   0.0000E+00   energy=   0.2003E-08
 nd#      11  xforce=   0.2246E-02   yforce=   0.2246E-02  zforce=   0.0000E+00   energy=   0.1593E-09
 nd#      23  xforce=   0.2246E-02   yforce=   0.3529E-02  zforce=   0.0000E+00   energy=   0.2003E-08
              xtotal=   0.8020E-02   ytotal=   0.8020E-02  ztotal=   0.0000E+00   etotal=   0.4165E-08

 n o d a l   f o r c e/e n e r g y    o u t p u t  t=   5.00013E-05

 pressure boundary condition forces 

 nd#       1  xforce=   0.3669E-02   yforce=   0.2486E-02  zforce=   0.0000E+00   energy=   0.2052E-08
 nd#      11  xforce=   0.2486E-02   yforce=   0.2486E-02  zforce=   0.0000E+00   energy=   0.1743E-09
 nd#      23  xforce=   0.2486E-02   yforce=   0.3669E-02  zforce=   0.0000E+00   energy=   0.2052E-08
              xtotal=   0.8641E-02   ytotal=   0.8641E-02  ztotal=   0.0000E+00   etotal=   0.4278E-08

 n o d a l   f o r c e/e n e r g y    o u t p u t  t=   5.50862E-05

 pressure boundary condition forces 

 nd#       1  xforce=   0.3909E-02   yforce=   0.2740E-02  zforce=   0.0000E+00   energy=   0.2343E-08
 nd#      11  xforce=   0.2740E-02   yforce=   0.2740E-02  zforce=   0.0000E+00   energy=   0.2156E-09
 nd#      23  xforce=   0.2740E-02   yforce=   0.3909E-02  zforce=   0.0000E+00   energy=   0.2343E-08
              xtotal=   0.9389E-02   ytotal=   0.9389E-02  ztotal=   0.0000E+00   etotal=   0.4901E-08

 n o d a l   f o r c e/e n e r g y    o u t p u t  t=   6.01711E-05

 pressure boundary condition forces 

 nd#       1  xforce=   0.4354E-02   yforce=   0.2994E-02  zforce=   0.0000E+00   energy=   0.3037E-08
 nd#      11  xforce=   0.2994E-02   yforce=   0.2994E-02  zforce=   0.0000E+00   energy=   0.2660E-09
 nd#      23  xforce=   0.2994E-02   yforce=   0.4354E-02  zforce=   0.0000E+00   energy=   0.3037E-08
              xtotal=   0.1034E-01   ytotal=   0.1034E-01  ztotal=   0.0000E+00   etotal=   0.6341E-08

 n o d a l   f o r c e/e n e r g y    o u t p u t  t=   6.52560E-05

 pressure boundary condition forces 

 nd#       1  xforce=   0.4962E-02   yforce=   0.3249E-02  zforce=   0.0000E+00   energy=   0.4137E-08
 nd#      11  xforce=   0.3249E-02   yforce=   0.3249E-02  zforce=   0.0000E+00   energy=   0.3154E-09
 nd#      23  xforce=   0.3249E-02   yforce=   0.4962E-02  zforce=   0.0000E+00   energy=   0.4137E-08
              xtotal=   0.1146E-01   ytotal=   0.1146E-01  ztotal=   0.0000E+00   etotal=   0.8590E-08

 n o d a l   f o r c e/e n e r g y    o u t p u t  t=   7.00583E-05

 pressure boundary condition forces 

 nd#       1  xforce=   0.5609E-02   yforce=   0.3489E-02  zforce=   0.0000E+00   energy=   0.5403E-08
 nd#      11  xforce=   0.3489E-02   yforce=   0.3489E-02  zforce=   0.0000E+00   energy=   0.3928E-09
 nd#      23  xforce=   0.3489E-02   yforce=   0.5609E-02  zforce=   0.0000E+00   energy=   0.5403E-08
              xtotal=   0.1259E-01   ytotal=   0.1259E-01  ztotal=   0.0000E+00   etotal=   0.1120E-07

 n o d a l   f o r c e/e n e r g y    o u t p u t  t=   7.51432E-05

 pressure boundary condition forces 

 nd#       1  xforce=   0.6246E-02   yforce=   0.3743E-02  zforce=   0.0000E+00   energy=   0.6658E-08
 nd#      11  xforce=   0.3743E-02   yforce=   0.3743E-02  zforce=   0.0000E+00   energy=   0.4571E-09
 nd#      23  xforce=   0.3743E-02   yforce=   0.6246E-02  zforce=   0.0000E+00   energy=   0.6658E-08
              xtotal=   0.1373E-01   ytotal=   0.1373E-01  ztotal=   0.0000E+00   etotal=   0.1377E-07

 n o d a l   f o r c e/e n e r g y    o u t p u t  t=   8.02281E-05

 pressure boundary condition forces 

 nd#       1  xforce=   0.6702E-02   yforce=   0.3997E-02  zforce=   0.0000E+00   energy=   0.7546E-08
 nd#      11  xforce=   0.3997E-02   yforce=   0.3997E-02  zforce=   0.0000E+00   energy=   0.5129E-09
 nd#      23  xforce=   0.3997E-02   yforce=   0.6702E-02  zforce=   0.0000E+00   energy=   0.7546E-08
              xtotal=   0.1470E-01   ytotal=   0.1470E-01  ztotal=   0.0000E+00   etotal=   0.1560E-07

 n o d a l   f o r c e/e n e r g y    o u t p u t  t=   8.50305E-05

 pressure boundary condition forces 

 nd#       1  xforce=   0.6944E-02   yforce=   0.4237E-02  zforce=   0.0000E+00   energy=   0.7958E-08
 nd#      11  xforce=   0.4237E-02   yforce=   0.4237E-02  zforce=   0.0000E+00   energy=   0.5794E-09
 nd#      23  xforce=   0.4237E-02   yforce=   0.6944E-02  zforce=   0.0000E+00   energy=   0.7958E-08
              xtotal=   0.1542E-01   ytotal=   0.1542E-01  ztotal=   0.0000E+00   etotal=   0.1650E-07

 n o d a l   f o r c e/e n e r g y    o u t p u t  t=   9.01154E-05

 pressure boundary condition forces 

 nd#       1  xforce=   0.7074E-02   yforce=   0.4492E-02  zforce=   0.0000E+00   energy=   0.8045E-08
 nd#      11  xforce=   0.4492E-02   yforce=   0.4492E-02  zforce=   0.0000E+00   energy=   0.6137E-09
 nd#      23  xforce=   0.4492E-02   yforce=   0.7074E-02  zforce=   0.0000E+00   energy=   0.8045E-08
              xtotal=   0.1606E-01   ytotal=   0.1606E-01  ztotal=   0.0000E+00   etotal=   0.1670E-07

 n o d a l   f o r c e/e n e r g y    o u t p u t  t=   9.52002E-05

 pressure boundary condition forces 

 nd#       1  xforce=   0.7202E-02   yforce=   0.4746E-02  zforce=   0.0000E+00   energy=   0.8164E-08
 nd#      11  xforce=   0.4746E-02   yforce=   0.4746E-02  zforce=   0.0000E+00   energy=   0.6671E-09
 nd#      23  xforce=   0.4746E-02   yforce=   0.7202E-02  zforce=   0.0000E+00   energy=   0.8164E-08
              xtotal=   0.1669E-01   ytotal=   0.1669E-01  ztotal=   0.0000E+00   etotal=   0.1700E-07

 n o d a l   f o r c e/e n e r g y    o u t p u t  t=   1.00003E-04

 pressure boundary condition forces 

 nd#       1  xforce=   0.7436E-02   yforce=   0.4986E-02  zforce=   0.0000E+00   energy=   0.8681E-08
 nd#      11  xforce=   0.4986E-02   yforce=   0.4986E-02  zforce=   0.0000E+00   energy=   0.7416E-09
 nd#      23  xforce=   0.4986E-02   yforce=   0.7436E-02  zforce=   0.0000E+00   energy=   0.8681E-08
              xtotal=   0.1741E-01   ytotal=   0.1741E-01  ztotal=   0.0000E+00   etotal=   0.1810E-07

 n o d a l   f o r c e/e n e r g y    o u t p u t  t=   1.05088E-04

 pressure boundary condition forces 

 nd#       1  xforce=   0.7886E-02   yforce=   0.5240E-02  zforce=   0.0000E+00   energy=   0.9892E-08
 nd#      11  xforce=   0.5240E-02   yforce=   0.5240E-02  zforce=   0.0000E+00   energy=   0.8055E-09
 nd#      23  xforce=   0.5240E-02   yforce=   0.7886E-02  zforce=   0.0000E+00   energy=   0.9892E-08
              xtotal=   0.1837E-01   ytotal=   0.1837E-01  ztotal=   0.0000E+00   etotal=   0.2059E-07

 n o d a l   f o r c e/e n e r g y    o u t p u t  t=   1.10172E-04

 pressure boundary condition forces 

 nd#       1  xforce=   0.8497E-02   yforce=   0.5494E-02  zforce=   0.0000E+00   energy=   0.1180E-07
 nd#      11  xforce=   0.5494E-02   yforce=   0.5494E-02  zforce=   0.0000E+00   energy=   0.9245E-09
 nd#      23  xforce=   0.5494E-02   yforce=   0.8497E-02  zforce=   0.0000E+00   energy=   0.1180E-07
              xtotal=   0.1949E-01   ytotal=   0.1949E-01  ztotal=   0.0000E+00   etotal=   0.2452E-07

 n o d a l   f o r c e/e n e r g y    o u t p u t  t=   1.15257E-04

 pressure boundary condition forces 

 nd#       1  xforce=   0.9184E-02   yforce=   0.5749E-02  zforce=   0.0000E+00   energy=   0.1402E-07
 nd#      11  xforce=   0.5749E-02   yforce=   0.5749E-02  zforce=   0.0000E+00   energy=   0.1041E-08
 nd#      23  xforce=   0.5749E-02   yforce=   0.9184E-02  zforce=   0.0000E+00   energy=   0.1402E-07
              xtotal=   0.2068E-01   ytotal=   0.2068E-01  ztotal=   0.0000E+00   etotal=   0.2908E-07

 n o d a l   f o r c e/e n e r g y    o u t p u t  t=   1.20060E-04

 pressure boundary condition forces 

 nd#       1  xforce=   0.9784E-02   yforce=   0.5989E-02  zforce=   0.0000E+00   energy=   0.1593E-07
 nd#      11  xforce=   0.5989E-02   yforce=   0.5989E-02  zforce=   0.0000E+00   energy=   0.1128E-08
 nd#      23  xforce=   0.5989E-02   yforce=   0.9784E-02  zforce=   0.0000E+00   energy=   0.1593E-07
              xtotal=   0.2176E-01   ytotal=   0.2176E-01  ztotal=   0.0000E+00   etotal=   0.3299E-07

 n o d a l   f o r c e/e n e r g y    o u t p u t  t=   1.25145E-04

 pressure boundary condition forces 

 nd#       1  xforce=   0.1023E-01   yforce=   0.6243E-02  zforce=   0.0000E+00   energy=   0.1737E-07
 nd#      11  xforce=   0.6243E-02   yforce=   0.6243E-02  zforce=   0.0000E+00   energy=   0.1254E-08
 nd#      23  xforce=   0.6243E-02   yforce=   0.1023E-01  zforce=   0.0000E+00   energy=   0.1737E-07
              xtotal=   0.2271E-01   ytotal=   0.2271E-01  ztotal=   0.0000E+00   etotal=   0.3599E-07

 n o d a l   f o r c e/e n e r g y    o u t p u t  t=   1.30229E-04

 pressure boundary condition forces 

 nd#       1  xforce=   0.1049E-01   yforce=   0.6497E-02  zforce=   0.0000E+00   energy=   0.1801E-07
 nd#      11  xforce=   0.6497E-02   yforce=   0.6497E-02  zforce=   0.0000E+00   energy=   0.1323E-08
 nd#      23  xforce=   0.6497E-02   yforce=   0.1049E-01  zforce=   0.0000E+00   energy=   0.1801E-07
              xtotal=   0.2349E-01   ytotal=   0.2349E-01  ztotal=   0.0000E+00   etotal=   0.3735E-07

 n o d a l   f o r c e/e n e r g y    o u t p u t  t=   1.35032E-04

 pressure boundary condition forces 

 nd#       1  xforce=   0.1061E-01   yforce=   0.6737E-02  zforce=   0.0000E+00   energy=   0.1814E-07
 nd#      11  xforce=   0.6737E-02   yforce=   0.6737E-02  zforce=   0.0000E+00   energy=   0.1387E-08
 nd#      23  xforce=   0.6737E-02   yforce=   0.1061E-01  zforce=   0.0000E+00   energy=   0.1814E-07
              xtotal=   0.2408E-01   ytotal=   0.2408E-01  ztotal=   0.0000E+00   etotal=   0.3767E-07

 n o d a l   f o r c e/e n e r g y    o u t p u t  t=   1.40117E-04

 pressure boundary condition forces 

 nd#       1  xforce=   0.1073E-01   yforce=   0.6992E-02  zforce=   0.0000E+00   energy=   0.1833E-07
 nd#      11  xforce=   0.6992E-02   yforce=   0.6992E-02  zforce=   0.0000E+00   energy=   0.1484E-08
 nd#      23  xforce=   0.6992E-02   yforce=   0.1073E-01  zforce=   0.0000E+00   energy=   0.1833E-07
              xtotal=   0.2472E-01   ytotal=   0.2472E-01  ztotal=   0.0000E+00   etotal=   0.3813E-07

 n o d a l   f o r c e/e n e r g y    o u t p u t  t=   1.45202E-04

 pressure boundary condition forces 

 nd#       1  xforce=   0.1100E-01   yforce=   0.7246E-02  zforce=   0.0000E+00   energy=   0.1911E-07
 nd#      11  xforce=   0.7246E-02   yforce=   0.7246E-02  zforce=   0.0000E+00   energy=   0.1553E-08
 nd#      23  xforce=   0.7246E-02   yforce=   0.1100E-01  zforce=   0.0000E+00   energy=   0.1911E-07
              xtotal=   0.2549E-01   ytotal=   0.2549E-01  ztotal=   0.0000E+00   etotal=   0.3977E-07

 n o d a l   f o r c e/e n e r g y    o u t p u t  t=   1.50004E-04

 pressure boundary condition forces 

 nd#       1  xforce=   0.1142E-01   yforce=   0.7486E-02  zforce=   0.0000E+00   energy=   0.2080E-07
 nd#      11  xforce=   0.7486E-02   yforce=   0.7486E-02  zforce=   0.0000E+00   energy=   0.1683E-08
 nd#      23  xforce=   0.7486E-02   yforce=   0.1142E-01  zforce=   0.0000E+00   energy=   0.2080E-07
              xtotal=   0.2639E-01   ytotal=   0.2639E-01  ztotal=   0.0000E+00   etotal=   0.4327E-07

 n o d a l   f o r c e/e n e r g y    o u t p u t  t=   1.55089E-04

 pressure boundary condition forces 

 nd#       1  xforce=   0.1203E-01   yforce=   0.7740E-02  zforce=   0.0000E+00   energy=   0.2348E-07
 nd#      11  xforce=   0.7740E-02   yforce=   0.7740E-02  zforce=   0.0000E+00   energy=   0.1839E-08
 nd#      23  xforce=   0.7740E-02   yforce=   0.1203E-01  zforce=   0.0000E+00   energy=   0.2348E-07
              xtotal=   0.2751E-01   ytotal=   0.2751E-01  ztotal=   0.0000E+00   etotal=   0.4880E-07

 n o d a l   f o r c e/e n e r g y    o u t p u t  t=   1.60174E-04

 pressure boundary condition forces 

 nd#       1  xforce=   0.1271E-01   yforce=   0.7995E-02  zforce=   0.0000E+00   energy=   0.2657E-07
 nd#      11  xforce=   0.7995E-02   yforce=   0.7995E-02  zforce=   0.0000E+00   energy=   0.1972E-08
 nd#      23  xforce=   0.7995E-02   yforce=   0.1271E-01  zforce=   0.0000E+00   energy=   0.2657E-07
              xtotal=   0.2870E-01   ytotal=   0.2870E-01  ztotal=   0.0000E+00   etotal=   0.5511E-07

 n o d a l   f o r c e/e n e r g y    o u t p u t  t=   1.65259E-04

 pressure boundary condition forces 

 nd#       1  xforce=   0.1333E-01   yforce=   0.8249E-02  zforce=   0.0000E+00   energy=   0.2939E-07
 nd#      11  xforce=   0.8249E-02   yforce=   0.8249E-02  zforce=   0.0000E+00   energy=   0.2152E-08
 nd#      23  xforce=   0.8249E-02   yforce=   0.1333E-01  zforce=   0.0000E+00   energy=   0.2939E-07
              xtotal=   0.2983E-01   ytotal=   0.2983E-01  ztotal=   0.0000E+00   etotal=   0.6094E-07

 n o d a l   f o r c e/e n e r g y    o u t p u t  t=   1.70061E-04

 pressure boundary condition forces 

 nd#       1  xforce=   0.1376E-01   yforce=   0.8489E-02  zforce=   0.0000E+00   energy=   0.3122E-07
 nd#      11  xforce=   0.8489E-02   yforce=   0.8489E-02  zforce=   0.0000E+00   energy=   0.2275E-08
 nd#      23  xforce=   0.8489E-02   yforce=   0.1376E-01  zforce=   0.0000E+00   energy=   0.3122E-07
              xtotal=   0.3074E-01   ytotal=   0.3074E-01  ztotal=   0.0000E+00   etotal=   0.6471E-07

 n o d a l   f o r c e/e n e r g y    o u t p u t  t=   1.75146E-04

 pressure boundary condition forces 

 nd#       1  xforce=   0.1403E-01   yforce=   0.8743E-02  zforce=   0.0000E+00   energy=   0.3210E-07
 nd#      11  xforce=   0.8743E-02   yforce=   0.8743E-02  zforce=   0.0000E+00   energy=   0.2369E-08
 nd#      23  xforce=   0.8743E-02   yforce=   0.1403E-01  zforce=   0.0000E+00   energy=   0.3210E-07
              xtotal=   0.3152E-01   ytotal=   0.3152E-01  ztotal=   0.0000E+00   etotal=   0.6657E-07

 n o d a l   f o r c e/e n e r g y    o u t p u t  t=   1.80231E-04

 pressure boundary condition forces 

 nd#       1  xforce=   0.1416E-01   yforce=   0.8997E-02  zforce=   0.0000E+00   energy=   0.3231E-07
 nd#      11  xforce=   0.8997E-02   yforce=   0.8997E-02  zforce=   0.0000E+00   energy=   0.2503E-08
 nd#      23  xforce=   0.8997E-02   yforce=   0.1416E-01  zforce=   0.0000E+00   energy=   0.3231E-07
              xtotal=   0.3215E-01   ytotal=   0.3215E-01  ztotal=   0.0000E+00   etotal=   0.6712E-07

 n o d a l   f o r c e/e n e r g y    o u t p u t  t=   1.85033E-04

 pressure boundary condition forces 

 nd#       1  xforce=   0.1427E-01   yforce=   0.9238E-02  zforce=   0.0000E+00   energy=   0.3250E-07
 nd#      11  xforce=   0.9238E-02   yforce=   0.9238E-02  zforce=   0.0000E+00   energy=   0.2569E-08
 nd#      23  xforce=   0.9238E-02   yforce=   0.1427E-01  zforce=   0.0000E+00   energy=   0.3250E-07
              xtotal=   0.3275E-01   ytotal=   0.3275E-01  ztotal=   0.0000E+00   etotal=   0.6758E-07

 n o d a l   f o r c e/e n e r g y    o u t p u t  t=   1.90118E-04

 pressure boundary condition forces 

 nd#       1  xforce=   0.1452E-01   yforce=   0.9492E-02  zforce=   0.0000E+00   energy=   0.3355E-07
 nd#      11  xforce=   0.9492E-02   yforce=   0.9492E-02  zforce=   0.0000E+00   energy=   0.2697E-08
 nd#      23  xforce=   0.9492E-02   yforce=   0.1452E-01  zforce=   0.0000E+00   energy=   0.3355E-07
              xtotal=   0.3351E-01   ytotal=   0.3351E-01  ztotal=   0.0000E+00   etotal=   0.6979E-07

 n o d a l   f o r c e/e n e r g y    o u t p u t  t=   1.95203E-04

 pressure boundary condition forces 

 nd#       1  xforce=   0.1497E-01   yforce=   0.9746E-02  zforce=   0.0000E+00   energy=   0.3590E-07
 nd#      11  xforce=   0.9746E-02   yforce=   0.9746E-02  zforce=   0.0000E+00   energy=   0.2884E-08
 nd#      23  xforce=   0.9746E-02   yforce=   0.1497E-01  zforce=   0.0000E+00   energy=   0.3590E-07
              xtotal=   0.3446E-01   ytotal=   0.3446E-01  ztotal=   0.0000E+00   etotal=   0.7467E-07

 n o d a l   f o r c e/e n e r g y    o u t p u t  t=   2.00005E-04

 pressure boundary condition forces 

 nd#       1  xforce=   0.1557E-01   yforce=   0.9986E-02  zforce=   0.0000E+00   energy=   0.3917E-07
 nd#      11  xforce=   0.9986E-02   yforce=   0.9986E-02  zforce=   0.0000E+00   energy=   0.3024E-08
 nd#      23  xforce=   0.9986E-02   yforce=   0.1557E-01  zforce=   0.0000E+00   energy=   0.3917E-07
              xtotal=   0.3554E-01   ytotal=   0.3554E-01  ztotal=   0.0000E+00   etotal=   0.8136E-07

 n o d a l   f o r c e/e n e r g y    o u t p u t  t=   2.05090E-04

 pressure boundary condition forces 

 nd#       1  xforce=   0.1625E-01   yforce=   0.1024E-01  zforce=   0.0000E+00   energy=   0.4318E-07
 nd#      11  xforce=   0.1024E-01   yforce=   0.1024E-01  zforce=   0.0000E+00   energy=   0.3259E-08
 nd#      23  xforce=   0.1024E-01   yforce=   0.1625E-01  zforce=   0.0000E+00   energy=   0.4318E-07
              xtotal=   0.3673E-01   ytotal=   0.3673E-01  ztotal=   0.0000E+00   etotal=   0.8962E-07

 n o d a l   f o r c e/e n e r g y    o u t p u t  t=   2.10175E-04

 pressure boundary condition forces 

 nd#       1  xforce=   0.1687E-01   yforce=   0.1049E-01  zforce=   0.0000E+00   energy=   0.4678E-07
 nd#      11  xforce=   0.1049E-01   yforce=   0.1049E-01  zforce=   0.0000E+00   energy=   0.3461E-08
 nd#      23  xforce=   0.1049E-01   yforce=   0.1687E-01  zforce=   0.0000E+00   energy=   0.4678E-07
              xtotal=   0.3786E-01   ytotal=   0.3786E-01  ztotal=   0.0000E+00   etotal=   0.9702E-07

 n o d a l   f o r c e/e n e r g y    o u t p u t  t=   2.15260E-04

 pressure boundary condition forces 

 nd#       1  xforce=   0.1731E-01   yforce=   0.1075E-01  zforce=   0.0000E+00   energy=   0.4919E-07
 nd#      11  xforce=   0.1075E-01   yforce=   0.1075E-01  zforce=   0.0000E+00   energy=   0.3599E-08
 nd#      23  xforce=   0.1075E-01   yforce=   0.1731E-01  zforce=   0.0000E+00   energy=   0.4919E-07
              xtotal=   0.3881E-01   ytotal=   0.3881E-01  ztotal=   0.0000E+00   etotal=   0.1020E-06

 n o d a l   f o r c e/e n e r g y    o u t p u t  t=   2.20062E-04

 pressure boundary condition forces 

 nd#       1  xforce=   0.1756E-01   yforce=   0.1099E-01  zforce=   0.0000E+00   energy=   0.5026E-07
 nd#      11  xforce=   0.1099E-01   yforce=   0.1099E-01  zforce=   0.0000E+00   energy=   0.3778E-08
 nd#      23  xforce=   0.1099E-01   yforce=   0.1756E-01  zforce=   0.0000E+00   energy=   0.5026E-07
              xtotal=   0.3953E-01   ytotal=   0.3953E-01  ztotal=   0.0000E+00   etotal=   0.1043E-06

 n o d a l   f o r c e/e n e r g y    o u t p u t  t=   2.25147E-04

 pressure boundary condition forces 

 nd#       1  xforce=   0.1770E-01   yforce=   0.1124E-01  zforce=   0.0000E+00   energy=   0.5049E-07
 nd#      11  xforce=   0.1124E-01   yforce=   0.1124E-01  zforce=   0.0000E+00   energy=   0.3878E-08
 nd#      23  xforce=   0.1124E-01   yforce=   0.1770E-01  zforce=   0.0000E+00   energy=   0.5049E-07
              xtotal=   0.4018E-01   ytotal=   0.4018E-01  ztotal=   0.0000E+00   etotal=   0.1049E-06

 n o d a l   f o r c e/e n e r g y    o u t p u t  t=   2.30232E-04

 pressure boundary condition forces 

 nd#       1  xforce=   0.1783E-01   yforce=   0.1150E-01  zforce=   0.0000E+00   energy=   0.5078E-07
 nd#      11  xforce=   0.1150E-01   yforce=   0.1150E-01  zforce=   0.0000E+00   energy=   0.3990E-08
 nd#      23  xforce=   0.1150E-01   yforce=   0.1783E-01  zforce=   0.0000E+00   energy=   0.5078E-07
              xtotal=   0.4082E-01   ytotal=   0.4082E-01  ztotal=   0.0000E+00   etotal=   0.1055E-06

 n o d a l   f o r c e/e n e r g y    o u t p u t  t=   2.35034E-04

 pressure boundary condition forces 

 nd#       1  xforce=   0.1806E-01   yforce=   0.1174E-01  zforce=   0.0000E+00   energy=   0.5204E-07
 nd#      11  xforce=   0.1174E-01   yforce=   0.1174E-01  zforce=   0.0000E+00   energy=   0.4177E-08
 nd#      23  xforce=   0.1174E-01   yforce=   0.1806E-01  zforce=   0.0000E+00   energy=   0.5204E-07
              xtotal=   0.4154E-01   ytotal=   0.4154E-01  ztotal=   0.0000E+00   etotal=   0.1083E-06

 n o d a l   f o r c e/e n e r g y    o u t p u t  t=   2.40119E-04

 pressure boundary condition forces 

 nd#       1  xforce=   0.1851E-01   yforce=   0.1199E-01  zforce=   0.0000E+00   energy=   0.5487E-07
 nd#      11  xforce=   0.1199E-01   yforce=   0.1199E-01  zforce=   0.0000E+00   energy=   0.4331E-08
 nd#      23  xforce=   0.1199E-01   yforce=   0.1851E-01  zforce=   0.0000E+00   energy=   0.5487E-07
              xtotal=   0.4249E-01   ytotal=   0.4249E-01  ztotal=   0.0000E+00   etotal=   0.1141E-06

 n o d a l   f o r c e/e n e r g y    o u t p u t  t=   2.45204E-04

 pressure boundary condition forces 

 nd#       1  xforce=   0.1912E-01   yforce=   0.1225E-01  zforce=   0.0000E+00   energy=   0.5917E-07
 nd#      11  xforce=   0.1225E-01   yforce=   0.1225E-01  zforce=   0.0000E+00   energy=   0.4581E-08
 nd#      23  xforce=   0.1225E-01   yforce=   0.1912E-01  zforce=   0.0000E+00   energy=   0.5917E-07
              xtotal=   0.4362E-01   ytotal=   0.4362E-01  ztotal=   0.0000E+00   etotal=   0.1229E-06

 n o d a l   f o r c e/e n e r g y    o u t p u t  t=   2.50007E-04

 pressure boundary condition forces 

 nd#       1  xforce=   0.1977E-01   yforce=   0.1249E-01  zforce=   0.0000E+00   energy=   0.6380E-07
 nd#      11  xforce=   0.1249E-01   yforce=   0.1249E-01  zforce=   0.0000E+00   energy=   0.4845E-08
 nd#      23  xforce=   0.1249E-01   yforce=   0.1977E-01  zforce=   0.0000E+00   energy=   0.6380E-07
              xtotal=   0.4475E-01   ytotal=   0.4475E-01  ztotal=   0.0000E+00   etotal=   0.1324E-06

 n o d a l   f o r c e/e n e r g y    o u t p u t  t=   2.55091E-04

 pressure boundary condition forces 

 nd#       1  xforce=   0.2040E-01   yforce=   0.1274E-01  zforce=   0.0000E+00   energy=   0.6816E-07
 nd#      11  xforce=   0.1274E-01   yforce=   0.1274E-01  zforce=   0.0000E+00   energy=   0.5040E-08
 nd#      23  xforce=   0.1274E-01   yforce=   0.2040E-01  zforce=   0.0000E+00   energy=   0.6816E-07
              xtotal=   0.4588E-01   ytotal=   0.4588E-01  ztotal=   0.0000E+00   etotal=   0.1414E-06

 n o d a l   f o r c e/e n e r g y    o u t p u t  t=   2.60176E-04

 pressure boundary condition forces 

 nd#       1  xforce=   0.2085E-01   yforce=   0.1299E-01  zforce=   0.0000E+00   energy=   0.7116E-07
 nd#      11  xforce=   0.1299E-01   yforce=   0.1299E-01  zforce=   0.0000E+00   energy=   0.5289E-08
 nd#      23  xforce=   0.1299E-01   yforce=   0.2085E-01  zforce=   0.0000E+00   energy=   0.7116E-07
              xtotal=   0.4684E-01   ytotal=   0.4684E-01  ztotal=   0.0000E+00   etotal=   0.1476E-06

 n o d a l   f o r c e/e n e r g y    o u t p u t  t=   2.65261E-04

 pressure boundary condition forces 

 nd#       1  xforce=   0.2111E-01   yforce=   0.1325E-01  zforce=   0.0000E+00   energy=   0.7248E-07
 nd#      11  xforce=   0.1325E-01   yforce=   0.1325E-01  zforce=   0.0000E+00   energy=   0.5456E-08
 nd#      23  xforce=   0.1325E-01   yforce=   0.2111E-01  zforce=   0.0000E+00   energy=   0.7248E-07
              xtotal=   0.4760E-01   ytotal=   0.4760E-01  ztotal=   0.0000E+00   etotal=   0.1504E-06

 n o d a l   f o r c e/e n e r g y    o u t p u t  t=   2.70064E-04

 pressure boundary condition forces 

 nd#       1  xforce=   0.2124E-01   yforce=   0.1349E-01  zforce=   0.0000E+00   energy=   0.7273E-07
 nd#      11  xforce=   0.1349E-01   yforce=   0.1349E-01  zforce=   0.0000E+00   energy=   0.5560E-08
 nd#      23  xforce=   0.1349E-01   yforce=   0.2124E-01  zforce=   0.0000E+00   energy=   0.7273E-07
              xtotal=   0.4822E-01   ytotal=   0.4822E-01  ztotal=   0.0000E+00   etotal=   0.1510E-06

 n o d a l   f o r c e/e n e r g y    o u t p u t  t=   2.75148E-04

 pressure boundary condition forces 

 nd#       1  xforce=   0.2136E-01   yforce=   0.1374E-01  zforce=   0.0000E+00   energy=   0.7310E-07
 nd#      11  xforce=   0.1374E-01   yforce=   0.1374E-01  zforce=   0.0000E+00   energy=   0.5768E-08
 nd#      23  xforce=   0.1374E-01   yforce=   0.2136E-01  zforce=   0.0000E+00   energy=   0.7310E-07
              xtotal=   0.4884E-01   ytotal=   0.4884E-01  ztotal=   0.0000E+00   etotal=   0.1520E-06

 n o d a l   f o r c e/e n e r g y    o u t p u t  t=   2.80233E-04

 pressure boundary condition forces 

 nd#       1  xforce=   0.2161E-01   yforce=   0.1400E-01  zforce=   0.0000E+00   energy=   0.7466E-07
 nd#      11  xforce=   0.1400E-01   yforce=   0.1400E-01  zforce=   0.0000E+00   energy=   0.5916E-08
 nd#      23  xforce=   0.1400E-01   yforce=   0.2161E-01  zforce=   0.0000E+00   energy=   0.7466E-07
              xtotal=   0.4961E-01   ytotal=   0.4961E-01  ztotal=   0.0000E+00   etotal=   0.1552E-06

 n o d a l   f o r c e/e n e r g y    o u t p u t  t=   2.85036E-04

 pressure boundary condition forces 

 nd#       1  xforce=   0.2203E-01   yforce=   0.1424E-01  zforce=   0.0000E+00   energy=   0.7789E-07
 nd#      11  xforce=   0.1424E-01   yforce=   0.1424E-01  zforce=   0.0000E+00   energy=   0.6133E-08
 nd#      23  xforce=   0.1424E-01   yforce=   0.2203E-01  zforce=   0.0000E+00   energy=   0.7789E-07
              xtotal=   0.5050E-01   ytotal=   0.5050E-01  ztotal=   0.0000E+00   etotal=   0.1619E-06

 n o d a l   f o r c e/e n e r g y    o u t p u t  t=   2.90121E-04

 pressure boundary condition forces 

 nd#       1  xforce=   0.2265E-01   yforce=   0.1449E-01  zforce=   0.0000E+00   energy=   0.8299E-07
 nd#      11  xforce=   0.1449E-01   yforce=   0.1449E-01  zforce=   0.0000E+00   energy=   0.6452E-08
 nd#      23  xforce=   0.1449E-01   yforce=   0.2265E-01  zforce=   0.0000E+00   energy=   0.8299E-07
              xtotal=   0.5163E-01   ytotal=   0.5163E-01  ztotal=   0.0000E+00   etotal=   0.1724E-06

 n o d a l   f o r c e/e n e r g y    o u t p u t  t=   2.95205E-04

 pressure boundary condition forces 

 nd#       1  xforce=   0.2335E-01   yforce=   0.1475E-01  zforce=   0.0000E+00   energy=   0.8873E-07
 nd#      11  xforce=   0.1475E-01   yforce=   0.1475E-01  zforce=   0.0000E+00   energy=   0.6694E-08
 nd#      23  xforce=   0.1475E-01   yforce=   0.2335E-01  zforce=   0.0000E+00   energy=   0.8873E-07
              xtotal=   0.5284E-01   ytotal=   0.5284E-01  ztotal=   0.0000E+00   etotal=   0.1842E-06

 n o d a l   f o r c e/e n e r g y    o u t p u t  t=   3.00008E-04

 pressure boundary condition forces 

 nd#       1  xforce=   0.2393E-01   yforce=   0.1499E-01  zforce=   0.0000E+00   energy=   0.9363E-07
 nd#      11  xforce=   0.1499E-01   yforce=   0.1499E-01  zforce=   0.0000E+00   energy=   0.7003E-08
 nd#      23  xforce=   0.1499E-01   yforce=   0.2393E-01  zforce=   0.0000E+00   energy=   0.9363E-07
              xtotal=   0.5390E-01   ytotal=   0.5390E-01  ztotal=   0.0000E+00   etotal=   0.1943E-06

 n o d a l   f o r c e/e n e r g y    o u t p u t  t=   3.05093E-04

 pressure boundary condition forces 

 nd#       1  xforce=   0.2439E-01   yforce=   0.1524E-01  zforce=   0.0000E+00   energy=   0.9716E-07
 nd#      11  xforce=   0.1524E-01   yforce=   0.1524E-01  zforce=   0.0000E+00   energy=   0.7257E-08
 nd#      23  xforce=   0.1524E-01   yforce=   0.2439E-01  zforce=   0.0000E+00   energy=   0.9716E-07
              xtotal=   0.5487E-01   ytotal=   0.5487E-01  ztotal=   0.0000E+00   etotal=   0.2016E-06

 n o d a l   f o r c e/e n e r g y    o u t p u t  t=   3.10178E-04

 pressure boundary condition forces 

 nd#       1  xforce=   0.2464E-01   yforce=   0.1549E-01  zforce=   0.0000E+00   energy=   0.9870E-07
 nd#      11  xforce=   0.1549E-01   yforce=   0.1549E-01  zforce=   0.0000E+00   energy=   0.7407E-08
 nd#      23  xforce=   0.1549E-01   yforce=   0.2464E-01  zforce=   0.0000E+00   energy=   0.9870E-07
              xtotal=   0.5563E-01   ytotal=   0.5563E-01  ztotal=   0.0000E+00   etotal=   0.2048E-06

 n o d a l   f o r c e/e n e r g y    o u t p u t  t=   3.15262E-04

 pressure boundary condition forces 

 nd#       1  xforce=   0.2476E-01   yforce=   0.1575E-01  zforce=   0.0000E+00   energy=   0.9906E-07
 nd#      11  xforce=   0.1575E-01   yforce=   0.1575E-01  zforce=   0.0000E+00   energy=   0.7634E-08
 nd#      23  xforce=   0.1575E-01   yforce=   0.2476E-01  zforce=   0.0000E+00   energy=   0.9906E-07
              xtotal=   0.5626E-01   ytotal=   0.5626E-01  ztotal=   0.0000E+00   etotal=   0.2057E-06

 n o d a l   f o r c e/e n e r g y    o u t p u t  t=   3.20065E-04

 pressure boundary condition forces 

 nd#       1  xforce=   0.2490E-01   yforce=   0.1599E-01  zforce=   0.0000E+00   energy=   0.9942E-07
 nd#      11  xforce=   0.1599E-01   yforce=   0.1599E-01  zforce=   0.0000E+00   energy=   0.7777E-08
 nd#      23  xforce=   0.1599E-01   yforce=   0.2490E-01  zforce=   0.0000E+00   energy=   0.9942E-07
              xtotal=   0.5688E-01   ytotal=   0.5688E-01  ztotal=   0.0000E+00   etotal=   0.2066E-06

 n o d a l   f o r c e/e n e r g y    o u t p u t  t=   3.25150E-04

 pressure boundary condition forces 

 nd#       1  xforce=   0.2516E-01   yforce=   0.1624E-01  zforce=   0.0000E+00   energy=   0.1012E-06
 nd#      11  xforce=   0.1624E-01   yforce=   0.1624E-01  zforce=   0.0000E+00   energy=   0.7969E-08
 nd#      23  xforce=   0.1624E-01   yforce=   0.2516E-01  zforce=   0.0000E+00   energy=   0.1012E-06
              xtotal=   0.5765E-01   ytotal=   0.5765E-01  ztotal=   0.0000E+00   etotal=   0.2104E-06

 n o d a l   f o r c e/e n e r g y    o u t p u t  t=   3.30235E-04

 pressure boundary condition forces 

 nd#       1  xforce=   0.2560E-01   yforce=   0.1650E-01  zforce=   0.0000E+00   energy=   0.1053E-06
 nd#      11  xforce=   0.1650E-01   yforce=   0.1650E-01  zforce=   0.0000E+00   energy=   0.8301E-08
 nd#      23  xforce=   0.1650E-01   yforce=   0.2560E-01  zforce=   0.0000E+00   energy=   0.1053E-06
              xtotal=   0.5859E-01   ytotal=   0.5859E-01  ztotal=   0.0000E+00   etotal=   0.2188E-06

 n o d a l   f o r c e/e n e r g y    o u t p u t  t=   3.35037E-04

 pressure boundary condition forces 

 nd#       1  xforce=   0.2618E-01   yforce=   0.1674E-01  zforce=   0.0000E+00   energy=   0.1108E-06
 nd#      11  xforce=   0.1674E-01   yforce=   0.1674E-01  zforce=   0.0000E+00   energy=   0.8547E-08
 nd#      23  xforce=   0.1674E-01   yforce=   0.2618E-01  zforce=   0.0000E+00   energy=   0.1108E-06
              xtotal=   0.5966E-01   ytotal=   0.5966E-01  ztotal=   0.0000E+00   etotal=   0.2301E-06

 n o d a l   f o r c e/e n e r g y    o u t p u t  t=   3.40122E-04

 pressure boundary condition forces 

 nd#       1  xforce=   0.2687E-01   yforce=   0.1699E-01  zforce=   0.0000E+00   energy=   0.1175E-06
 nd#      11  xforce=   0.1699E-01   yforce=   0.1699E-01  zforce=   0.0000E+00   energy=   0.8907E-08
 nd#      23  xforce=   0.1699E-01   yforce=   0.2687E-01  zforce=   0.0000E+00   energy=   0.1175E-06
              xtotal=   0.6085E-01   ytotal=   0.6085E-01  ztotal=   0.0000E+00   etotal=   0.2438E-06

 n o d a l   f o r c e/e n e r g y    o u t p u t  t=   3.45207E-04

 pressure boundary condition forces 

 nd#       1  xforce=   0.2749E-01   yforce=   0.1725E-01  zforce=   0.0000E+00   energy=   0.1234E-06
 nd#      11  xforce=   0.1725E-01   yforce=   0.1725E-01  zforce=   0.0000E+00   energy=   0.9278E-08
 nd#      23  xforce=   0.1725E-01   yforce=   0.2749E-01  zforce=   0.0000E+00   energy=   0.1234E-06
              xtotal=   0.6198E-01   ytotal=   0.6198E-01  ztotal=   0.0000E+00   etotal=   0.2561E-06

 n o d a l   f o r c e/e n e r g y    o u t p u t  t=   3.50009E-04

 pressure boundary condition forces 

 nd#       1  xforce=   0.2793E-01   yforce=   0.1749E-01  zforce=   0.0000E+00   energy=   0.1272E-06
 nd#      11  xforce=   0.1749E-01   yforce=   0.1749E-01  zforce=   0.0000E+00   energy=   0.9475E-08
 nd#      23  xforce=   0.1749E-01   yforce=   0.2793E-01  zforce=   0.0000E+00   energy=   0.1272E-06
              xtotal=   0.6290E-01   ytotal=   0.6290E-01  ztotal=   0.0000E+00   etotal=   0.2638E-06

 n o d a l   f o r c e/e n e r g y    o u t p u t  t=   3.55094E-04

 pressure boundary condition forces 

 nd#       1  xforce=   0.2818E-01   yforce=   0.1774E-01  zforce=   0.0000E+00   energy=   0.1290E-06
 nd#      11  xforce=   0.1774E-01   yforce=   0.1774E-01  zforce=   0.0000E+00   energy=   0.9760E-08
 nd#      23  xforce=   0.1774E-01   yforce=   0.2818E-01  zforce=   0.0000E+00   energy=   0.1290E-06
              xtotal=   0.6366E-01   ytotal=   0.6366E-01  ztotal=   0.0000E+00   etotal=   0.2678E-06

 n o d a l   f o r c e/e n e r g y    o u t p u t  t=   3.60179E-04

 pressure boundary condition forces 

 nd#       1  xforce=   0.2831E-01   yforce=   0.1799E-01  zforce=   0.0000E+00   energy=   0.1294E-06
 nd#      11  xforce=   0.1799E-01   yforce=   0.1799E-01  zforce=   0.0000E+00   energy=   0.9954E-08
 nd#      23  xforce=   0.1799E-01   yforce=   0.2831E-01  zforce=   0.0000E+00   energy=   0.1294E-06
              xtotal=   0.6430E-01   ytotal=   0.6430E-01  ztotal=   0.0000E+00   etotal=   0.2687E-06

 n o d a l   f o r c e/e n e r g y    o u t p u t  t=   3.65264E-04

 pressure boundary condition forces 

 nd#       1  xforce=   0.2844E-01   yforce=   0.1825E-01  zforce=   0.0000E+00   energy=   0.1298E-06
 nd#      11  xforce=   0.1825E-01   yforce=   0.1825E-01  zforce=   0.0000E+00   energy=   0.1010E-07
 nd#      23  xforce=   0.1825E-01   yforce=   0.2844E-01  zforce=   0.0000E+00   energy=   0.1298E-06
              xtotal=   0.6494E-01   ytotal=   0.6494E-01  ztotal=   0.0000E+00   etotal=   0.2698E-06

 n o d a l   f o r c e/e n e r g y    o u t p u t  t=   3.70066E-04

 pressure boundary condition forces 

 nd#       1  xforce=   0.2868E-01   yforce=   0.1849E-01  zforce=   0.0000E+00   energy=   0.1319E-06
 nd#      11  xforce=   0.1849E-01   yforce=   0.1849E-01  zforce=   0.0000E+00   energy=   0.1041E-07
 nd#      23  xforce=   0.1849E-01   yforce=   0.2868E-01  zforce=   0.0000E+00   energy=   0.1319E-06
              xtotal=   0.6566E-01   ytotal=   0.6566E-01  ztotal=   0.0000E+00   etotal=   0.2741E-06

 n o d a l   f o r c e/e n e r g y    o u t p u t  t=   3.75151E-04

 pressure boundary condition forces 

 nd#       1  xforce=   0.2913E-01   yforce=   0.1874E-01  zforce=   0.0000E+00   energy=   0.1364E-06
 nd#      11  xforce=   0.1874E-01   yforce=   0.1874E-01  zforce=   0.0000E+00   energy=   0.1067E-07
 nd#      23  xforce=   0.1874E-01   yforce=   0.2913E-01  zforce=   0.0000E+00   energy=   0.1364E-06
              xtotal=   0.6662E-01   ytotal=   0.6662E-01  ztotal=   0.0000E+00   etotal=   0.2834E-06

 n o d a l   f o r c e/e n e r g y    o u t p u t  t=   3.80236E-04

 pressure boundary condition forces 

 nd#       1  xforce=   0.2975E-01   yforce=   0.1900E-01  zforce=   0.0000E+00   energy=   0.1430E-06
 nd#      11  xforce=   0.1900E-01   yforce=   0.1900E-01  zforce=   0.0000E+00   energy=   0.1103E-07
 nd#      23  xforce=   0.1900E-01   yforce=   0.2975E-01  zforce=   0.0000E+00   energy=   0.1430E-06
              xtotal=   0.6774E-01   ytotal=   0.6774E-01  ztotal=   0.0000E+00   etotal=   0.2971E-06

 n o d a l   f o r c e/e n e r g y    o u t p u t  t=   3.85038E-04

 pressure boundary condition forces 

 nd#       1  xforce=   0.3040E-01   yforce=   0.1924E-01  zforce=   0.0000E+00   energy=   0.1502E-06
 nd#      11  xforce=   0.1924E-01   yforce=   0.1924E-01  zforce=   0.0000E+00   energy=   0.1146E-07
 nd#      23  xforce=   0.1924E-01   yforce=   0.3040E-01  zforce=   0.0000E+00   energy=   0.1502E-06
              xtotal=   0.6887E-01   ytotal=   0.6887E-01  ztotal=   0.0000E+00   etotal=   0.3119E-06

 n o d a l   f o r c e/e n e r g y    o u t p u t  t=   3.90123E-04

 pressure boundary condition forces 

 nd#       1  xforce=   0.3103E-01   yforce=   0.1949E-01  zforce=   0.0000E+00   energy=   0.1569E-06
 nd#      11  xforce=   0.1949E-01   yforce=   0.1949E-01  zforce=   0.0000E+00   energy=   0.1176E-07
 nd#      23  xforce=   0.1949E-01   yforce=   0.3103E-01  zforce=   0.0000E+00   energy=   0.1569E-06
              xtotal=   0.7001E-01   ytotal=   0.7001E-01  ztotal=   0.0000E+00   etotal=   0.3256E-06

 n o d a l   f o r c e/e n e r g y    o u t p u t  t=   3.95208E-04

 pressure boundary condition forces 

 nd#       1  xforce=   0.3148E-01   yforce=   0.1975E-01  zforce=   0.0000E+00   energy=   0.1614E-06
 nd#      11  xforce=   0.1975E-01   yforce=   0.1975E-01  zforce=   0.0000E+00   energy=   0.1211E-07
 nd#      23  xforce=   0.1975E-01   yforce=   0.3148E-01  zforce=   0.0000E+00   energy=   0.1614E-06
              xtotal=   0.7097E-01   ytotal=   0.7097E-01  ztotal=   0.0000E+00   etotal=   0.3350E-06

 n o d a l   f o r c e/e n e r g y    o u t p u t  t=   4.00010E-04

 pressure boundary condition forces 

 nd#       1  xforce=   0.3171E-01   yforce=   0.1999E-01  zforce=   0.0000E+00   energy=   0.1634E-06
 nd#      11  xforce=   0.1999E-01   yforce=   0.1999E-01  zforce=   0.0000E+00   energy=   0.1238E-07
 nd#      23  xforce=   0.1999E-01   yforce=   0.3171E-01  zforce=   0.0000E+00   energy=   0.1634E-06
              xtotal=   0.7169E-01   ytotal=   0.7169E-01  ztotal=   0.0000E+00   etotal=   0.3391E-06

 n o d a l   f o r c e/e n e r g y    o u t p u t  t=   4.05095E-04

 pressure boundary condition forces 

 nd#       1  xforce=   0.3184E-01   yforce=   0.2024E-01  zforce=   0.0000E+00   energy=   0.1638E-06
 nd#      11  xforce=   0.2024E-01   yforce=   0.2024E-01  zforce=   0.0000E+00   energy=   0.1254E-07
 nd#      23  xforce=   0.2024E-01   yforce=   0.3184E-01  zforce=   0.0000E+00   energy=   0.1638E-06
              xtotal=   0.7232E-01   ytotal=   0.7232E-01  ztotal=   0.0000E+00   etotal=   0.3400E-06

 n o d a l   f o r c e/e n e r g y    o u t p u t  t=   4.10180E-04

 pressure boundary condition forces 

 nd#       1  xforce=   0.3197E-01   yforce=   0.2049E-01  zforce=   0.0000E+00   energy=   0.1643E-06
 nd#      11  xforce=   0.2049E-01   yforce=   0.2049E-01  zforce=   0.0000E+00   energy=   0.1283E-07
 nd#      23  xforce=   0.2049E-01   yforce=   0.3197E-01  zforce=   0.0000E+00   energy=   0.1643E-06
              xtotal=   0.7296E-01   ytotal=   0.7296E-01  ztotal=   0.0000E+00   etotal=   0.3415E-06

 n o d a l   f o r c e/e n e r g y    o u t p u t  t=   4.15265E-04

 pressure boundary condition forces 

 nd#       1  xforce=   0.3224E-01   yforce=   0.2075E-01  zforce=   0.0000E+00   energy=   0.1667E-06
 nd#      11  xforce=   0.2075E-01   yforce=   0.2075E-01  zforce=   0.0000E+00   energy=   0.1309E-07
 nd#      23  xforce=   0.2075E-01   yforce=   0.3224E-01  zforce=   0.0000E+00   energy=   0.1667E-06
              xtotal=   0.7373E-01   ytotal=   0.7373E-01  ztotal=   0.0000E+00   etotal=   0.3465E-06

 n o d a l   f o r c e/e n e r g y    o u t p u t  t=   4.20067E-04

 pressure boundary condition forces 

 nd#       1  xforce=   0.3267E-01   yforce=   0.2099E-01  zforce=   0.0000E+00   energy=   0.1715E-06
 nd#      11  xforce=   0.2099E-01   yforce=   0.2099E-01  zforce=   0.0000E+00   energy=   0.1337E-07
 nd#      23  xforce=   0.2099E-01   yforce=   0.3267E-01  zforce=   0.0000E+00   energy=   0.1715E-06
              xtotal=   0.7465E-01   ytotal=   0.7465E-01  ztotal=   0.0000E+00   etotal=   0.3564E-06

 n o d a l   f o r c e/e n e r g y    o u t p u t  t=   4.25152E-04

 pressure boundary condition forces 

 nd#       1  xforce=   0.3328E-01   yforce=   0.2124E-01  zforce=   0.0000E+00   energy=   0.1790E-06
 nd#      11  xforce=   0.2124E-01   yforce=   0.2124E-01  zforce=   0.0000E+00   energy=   0.1387E-07
 nd#      23  xforce=   0.2124E-01   yforce=   0.3328E-01  zforce=   0.0000E+00   energy=   0.1790E-06
              xtotal=   0.7577E-01   ytotal=   0.7577E-01  ztotal=   0.0000E+00   etotal=   0.3719E-06

 n o d a l   f o r c e/e n e r g y    o u t p u t  t=   4.30237E-04

 pressure boundary condition forces 

 nd#       1  xforce=   0.3396E-01   yforce=   0.2150E-01  zforce=   0.0000E+00   energy=   0.1874E-06
 nd#      11  xforce=   0.2150E-01   yforce=   0.2150E-01  zforce=   0.0000E+00   energy=   0.1424E-07
 nd#      23  xforce=   0.2150E-01   yforce=   0.3396E-01  zforce=   0.0000E+00   energy=   0.1874E-06
              xtotal=   0.7696E-01   ytotal=   0.7696E-01  ztotal=   0.0000E+00   etotal=   0.3891E-06

 n o d a l   f o r c e/e n e r g y    o u t p u t  t=   4.35040E-04

 pressure boundary condition forces 

 nd#       1  xforce=   0.3455E-01   yforce=   0.2174E-01  zforce=   0.0000E+00   energy=   0.1945E-06
 nd#      11  xforce=   0.2174E-01   yforce=   0.2174E-01  zforce=   0.0000E+00   energy=   0.1464E-07
 nd#      23  xforce=   0.2174E-01   yforce=   0.3455E-01  zforce=   0.0000E+00   energy=   0.1945E-06
              xtotal=   0.7803E-01   ytotal=   0.7803E-01  ztotal=   0.0000E+00   etotal=   0.4036E-06

 n o d a l   f o r c e/e n e r g y    o u t p u t  t=   4.40124E-04

 pressure boundary condition forces 

 nd#       1  xforce=   0.3500E-01   yforce=   0.2199E-01  zforce=   0.0000E+00   energy=   0.1996E-06
 nd#      11  xforce=   0.2199E-01   yforce=   0.2199E-01  zforce=   0.0000E+00   energy=   0.1505E-07
 nd#      23  xforce=   0.2199E-01   yforce=   0.3500E-01  zforce=   0.0000E+00   energy=   0.1996E-06
              xtotal=   0.7899E-01   ytotal=   0.7899E-01  ztotal=   0.0000E+00   etotal=   0.4142E-06

 n o d a l   f o r c e/e n e r g y    o u t p u t  t=   4.45209E-04

 pressure boundary condition forces 

 nd#       1  xforce=   0.3527E-01   yforce=   0.2225E-01  zforce=   0.0000E+00   energy=   0.2018E-06
 nd#      11  xforce=   0.2225E-01   yforce=   0.2225E-01  zforce=   0.0000E+00   energy=   0.1525E-07
 nd#      23  xforce=   0.2225E-01   yforce=   0.3527E-01  zforce=   0.0000E+00   energy=   0.2018E-06
              xtotal=   0.7977E-01   ytotal=   0.7977E-01  ztotal=   0.0000E+00   etotal=   0.4188E-06

 n o d a l   f o r c e/e n e r g y    o u t p u t  t=   4.50012E-04

 pressure boundary condition forces 

 nd#       1  xforce=   0.3539E-01   yforce=   0.2249E-01  zforce=   0.0000E+00   energy=   0.2022E-06
 nd#      11  xforce=   0.2249E-01   yforce=   0.2249E-01  zforce=   0.0000E+00   energy=   0.1555E-07
 nd#      23  xforce=   0.2249E-01   yforce=   0.3539E-01  zforce=   0.0000E+00   energy=   0.2022E-06
              xtotal=   0.8036E-01   ytotal=   0.8036E-01  ztotal=   0.0000E+00   etotal=   0.4200E-06

 n o d a l   f o r c e/e n e r g y    o u t p u t  t=   4.55097E-04

 pressure boundary condition forces 

 nd#       1  xforce=   0.3551E-01   yforce=   0.2274E-01  zforce=   0.0000E+00   energy=   0.2028E-06
 nd#      11  xforce=   0.2274E-01   yforce=   0.2274E-01  zforce=   0.0000E+00   energy=   0.1580E-07
 nd#      23  xforce=   0.2274E-01   yforce=   0.3551E-01  zforce=   0.0000E+00   energy=   0.2028E-06
              xtotal=   0.8100E-01   ytotal=   0.8100E-01  ztotal=   0.0000E+00   etotal=   0.4214E-06

 n o d a l   f o r c e/e n e r g y    o u t p u t  t=   4.60181E-04

 pressure boundary condition forces 

 nd#       1  xforce=   0.3577E-01   yforce=   0.2299E-01  zforce=   0.0000E+00   energy=   0.2054E-06
 nd#      11  xforce=   0.2299E-01   yforce=   0.2299E-01  zforce=   0.0000E+00   energy=   0.1603E-07
 nd#      23  xforce=   0.2299E-01   yforce=   0.3577E-01  zforce=   0.0000E+00   energy=   0.2054E-06
              xtotal=   0.8176E-01   ytotal=   0.8176E-01  ztotal=   0.0000E+00   etotal=   0.4268E-06

 n o d a l   f o r c e/e n e r g y    o u t p u t  t=   4.65266E-04

 pressure boundary condition forces 

 nd#       1  xforce=   0.3622E-01   yforce=   0.2325E-01  zforce=   0.0000E+00   energy=   0.2111E-06
 nd#      11  xforce=   0.2325E-01   yforce=   0.2325E-01  zforce=   0.0000E+00   energy=   0.1651E-07
 nd#      23  xforce=   0.2325E-01   yforce=   0.3622E-01  zforce=   0.0000E+00   energy=   0.2111E-06
              xtotal=   0.8271E-01   ytotal=   0.8271E-01  ztotal=   0.0000E+00   etotal=   0.4387E-06

 n o d a l   f o r c e/e n e r g y    o u t p u t  t=   4.70069E-04

 pressure boundary condition forces 

 nd#       1  xforce=   0.3681E-01   yforce=   0.2349E-01  zforce=   0.0000E+00   energy=   0.2189E-06
 nd#      11  xforce=   0.2349E-01   yforce=   0.2349E-01  zforce=   0.0000E+00   energy=   0.1689E-07
 nd#      23  xforce=   0.2349E-01   yforce=   0.3681E-01  zforce=   0.0000E+00   energy=   0.2189E-06
              xtotal=   0.8379E-01   ytotal=   0.8379E-01  ztotal=   0.0000E+00   etotal=   0.4548E-06

 n o d a l   f o r c e/e n e r g y    o u t p u t  t=   4.75154E-04

 pressure boundary condition forces 

 nd#       1  xforce=   0.3750E-01   yforce=   0.2374E-01  zforce=   0.0000E+00   energy=   0.2282E-06
 nd#      11  xforce=   0.2374E-01   yforce=   0.2374E-01  zforce=   0.0000E+00   energy=   0.1735E-07
 nd#      23  xforce=   0.2374E-01   yforce=   0.3750E-01  zforce=   0.0000E+00   energy=   0.2282E-06
              xtotal=   0.8499E-01   ytotal=   0.8499E-01  ztotal=   0.0000E+00   etotal=   0.4738E-06

 n o d a l   f o r c e/e n e r g y    o u t p u t  t=   4.80238E-04

 pressure boundary condition forces 

 nd#       1  xforce=   0.3812E-01   yforce=   0.2400E-01  zforce=   0.0000E+00   energy=   0.2365E-06
 nd#      11  xforce=   0.2400E-01   yforce=   0.2400E-01  zforce=   0.0000E+00   energy=   0.1789E-07
 nd#      23  xforce=   0.2400E-01   yforce=   0.3812E-01  zforce=   0.0000E+00   energy=   0.2365E-06
              xtotal=   0.8611E-01   ytotal=   0.8611E-01  ztotal=   0.0000E+00   etotal=   0.4909E-06

 n o d a l   f o r c e/e n e r g y    o u t p u t  t=   4.85041E-04

 pressure boundary condition forces 

 nd#       1  xforce=   0.3854E-01   yforce=   0.2424E-01  zforce=   0.0000E+00   energy=   0.2417E-06
 nd#      11  xforce=   0.2424E-01   yforce=   0.2424E-01  zforce=   0.0000E+00   energy=   0.1817E-07
 nd#      23  xforce=   0.2424E-01   yforce=   0.3854E-01  zforce=   0.0000E+00   energy=   0.2417E-06
              xtotal=   0.8702E-01   ytotal=   0.8702E-01  ztotal=   0.0000E+00   etotal=   0.5015E-06

 n o d a l   f o r c e/e n e r g y    o u t p u t  t=   4.90126E-04

 pressure boundary condition forces 

 nd#       1  xforce=   0.3880E-01   yforce=   0.2449E-01  zforce=   0.0000E+00   energy=   0.2442E-06
 nd#      11  xforce=   0.2449E-01   yforce=   0.2449E-01  zforce=   0.0000E+00   energy=   0.1853E-07
 nd#      23  xforce=   0.2449E-01   yforce=   0.3880E-01  zforce=   0.0000E+00   energy=   0.2442E-06
              xtotal=   0.8778E-01   ytotal=   0.8778E-01  ztotal=   0.0000E+00   etotal=   0.5070E-06

 n o d a l   f o r c e/e n e r g y    o u t p u t  t=   4.95211E-04

 pressure boundary condition forces 

 nd#       1  xforce=   0.3893E-01   yforce=   0.2475E-01  zforce=   0.0000E+00   energy=   0.2448E-06
 nd#      11  xforce=   0.2475E-01   yforce=   0.2475E-01  zforce=   0.0000E+00   energy=   0.1884E-07
 nd#      23  xforce=   0.2475E-01   yforce=   0.3893E-01  zforce=   0.0000E+00   energy=   0.2448E-06
              xtotal=   0.8842E-01   ytotal=   0.8842E-01  ztotal=   0.0000E+00   etotal=   0.5083E-06

 n o d a l   f o r c e/e n e r g y    o u t p u t  t=   5.00013E-04

 pressure boundary condition forces 

 nd#       1  xforce=   0.3905E-01   yforce=   0.2499E-01  zforce=   0.0000E+00   energy=   0.2453E-06
 nd#      11  xforce=   0.2499E-01   yforce=   0.2499E-01  zforce=   0.0000E+00   energy=   0.1901E-07
 nd#      23  xforce=   0.2499E-01   yforce=   0.3905E-01  zforce=   0.0000E+00   energy=   0.2453E-06
              xtotal=   0.8902E-01   ytotal=   0.8902E-01  ztotal=   0.0000E+00   etotal=   0.5096E-06

 n o d a l   f o r c e/e n e r g y    o u t p u t  t=   5.05098E-04

 pressure boundary condition forces 

 nd#       1  xforce=   0.3930E-01   yforce=   0.2524E-01  zforce=   0.0000E+00   energy=   0.2482E-06
 nd#      11  xforce=   0.2524E-01   yforce=   0.2524E-01  zforce=   0.0000E+00   energy=   0.1942E-07
 nd#      23  xforce=   0.2524E-01   yforce=   0.3930E-01  zforce=   0.0000E+00   energy=   0.2482E-06
              xtotal=   0.8978E-01   ytotal=   0.8978E-01  ztotal=   0.0000E+00   etotal=   0.5158E-06

 n o d a l   f o r c e/e n e r g y    o u t p u t  t=   5.10183E-04

 pressure boundary condition forces 

 nd#       1  xforce=   0.3975E-01   yforce=   0.2550E-01  zforce=   0.0000E+00   energy=   0.2543E-06
 nd#      11  xforce=   0.2550E-01   yforce=   0.2550E-01  zforce=   0.0000E+00   energy=   0.1983E-07
 nd#      23  xforce=   0.2550E-01   yforce=   0.3975E-01  zforce=   0.0000E+00   energy=   0.2543E-06
              xtotal=   0.9074E-01   ytotal=   0.9074E-01  ztotal=   0.0000E+00   etotal=   0.5285E-06

 n o d a l   f o r c e/e n e r g y    o u t p u t  t=   5.15268E-04

 pressure boundary condition forces 

 nd#       1  xforce=   0.4038E-01   yforce=   0.2575E-01  zforce=   0.0000E+00   energy=   0.2634E-06
 nd#      11  xforce=   0.2575E-01   yforce=   0.2575E-01  zforce=   0.0000E+00   energy=   0.2026E-07
 nd#      23  xforce=   0.2575E-01   yforce=   0.4038E-01  zforce=   0.0000E+00   energy=   0.2634E-06
              xtotal=   0.9188E-01   ytotal=   0.9188E-01  ztotal=   0.0000E+00   etotal=   0.5471E-06

 n o d a l   f o r c e/e n e r g y    o u t p u t  t=   5.20070E-04

 pressure boundary condition forces 

 nd#       1  xforce=   0.4102E-01   yforce=   0.2599E-01  zforce=   0.0000E+00   energy=   0.2732E-06
 nd#      11  xforce=   0.2599E-01   yforce=   0.2599E-01  zforce=   0.0000E+00   energy=   0.2087E-07
 nd#      23  xforce=   0.2599E-01   yforce=   0.4102E-01  zforce=   0.0000E+00   energy=   0.2732E-06
              xtotal=   0.9300E-01   ytotal=   0.9300E-01  ztotal=   0.0000E+00   etotal=   0.5672E-06

 n o d a l   f o r c e/e n e r g y    o u t p u t  t=   5.25155E-04

 pressure boundary condition forces 

 nd#       1  xforce=   0.4165E-01   yforce=   0.2624E-01  zforce=   0.0000E+00   energy=   0.2821E-06
 nd#      11  xforce=   0.2624E-01   yforce=   0.2624E-01  zforce=   0.0000E+00   energy=   0.2130E-07
 nd#      23  xforce=   0.2624E-01   yforce=   0.4165E-01  zforce=   0.0000E+00   energy=   0.2821E-06
              xtotal=   0.9413E-01   ytotal=   0.9413E-01  ztotal=   0.0000E+00   etotal=   0.5856E-06

 n o d a l   f o r c e/e n e r g y    o u t p u t  t=   5.30240E-04

 pressure boundary condition forces 

 nd#       1  xforce=   0.4209E-01   yforce=   0.2650E-01  zforce=   0.0000E+00   energy=   0.2881E-06
 nd#      11  xforce=   0.2650E-01   yforce=   0.2650E-01  zforce=   0.0000E+00   energy=   0.2171E-07
 nd#      23  xforce=   0.2650E-01   yforce=   0.4209E-01  zforce=   0.0000E+00   energy=   0.2881E-06
              xtotal=   0.9509E-01   ytotal=   0.9509E-01  ztotal=   0.0000E+00   etotal=   0.5980E-06

 n o d a l   f o r c e/e n e r g y    o u t p u t  t=   5.35042E-04

 pressure boundary condition forces 

 nd#       1  xforce=   0.4233E-01   yforce=   0.2674E-01  zforce=   0.0000E+00   energy=   0.2907E-06
 nd#      11  xforce=   0.2674E-01   yforce=   0.2674E-01  zforce=   0.0000E+00   energy=   0.2212E-07
 nd#      23  xforce=   0.2674E-01   yforce=   0.4233E-01  zforce=   0.0000E+00   energy=   0.2907E-06
              xtotal=   0.9581E-01   ytotal=   0.9581E-01  ztotal=   0.0000E+00   etotal=   0.6036E-06

 n o d a l   f o r c e/e n e r g y    o u t p u t  t=   5.40127E-04

 pressure boundary condition forces 

 nd#       1  xforce=   0.4248E-01   yforce=   0.2699E-01  zforce=   0.0000E+00   energy=   0.2912E-06
 nd#      11  xforce=   0.2699E-01   yforce=   0.2699E-01  zforce=   0.0000E+00   energy=   0.2231E-07
 nd#      23  xforce=   0.2699E-01   yforce=   0.4248E-01  zforce=   0.0000E+00   energy=   0.2912E-06
              xtotal=   0.9646E-01   ytotal=   0.9646E-01  ztotal=   0.0000E+00   etotal=   0.6048E-06

 n o d a l   f o r c e/e n e r g y    o u t p u t  t=   5.45212E-04

 pressure boundary condition forces 

 nd#       1  xforce=   0.4260E-01   yforce=   0.2725E-01  zforce=   0.0000E+00   energy=   0.2920E-06
 nd#      11  xforce=   0.2725E-01   yforce=   0.2725E-01  zforce=   0.0000E+00   energy=   0.2269E-07
 nd#      23  xforce=   0.2725E-01   yforce=   0.4260E-01  zforce=   0.0000E+00   energy=   0.2920E-06
              xtotal=   0.9709E-01   ytotal=   0.9709E-01  ztotal=   0.0000E+00   etotal=   0.6067E-06

 n o d a l   f o r c e/e n e r g y    o u t p u t  t=   5.50014E-04

 pressure boundary condition forces 

 nd#       1  xforce=   0.4284E-01   yforce=   0.2749E-01  zforce=   0.0000E+00   energy=   0.2949E-06
 nd#      11  xforce=   0.2749E-01   yforce=   0.2749E-01  zforce=   0.0000E+00   energy=   0.2305E-07
 nd#      23  xforce=   0.2749E-01   yforce=   0.4284E-01  zforce=   0.0000E+00   energy=   0.2949E-06
              xtotal=   0.9781E-01   ytotal=   0.9781E-01  ztotal=   0.0000E+00   etotal=   0.6129E-06

 n o d a l   f o r c e/e n e r g y    o u t p u t  t=   5.55099E-04

 pressure boundary condition forces 

 nd#       1  xforce=   0.4328E-01   yforce=   0.2774E-01  zforce=   0.0000E+00   energy=   0.3016E-06
 nd#      11  xforce=   0.2774E-01   yforce=   0.2774E-01  zforce=   0.0000E+00   energy=   0.2342E-07
 nd#      23  xforce=   0.2774E-01   yforce=   0.4328E-01  zforce=   0.0000E+00   energy=   0.3016E-06
              xtotal=   0.9876E-01   ytotal=   0.9876E-01  ztotal=   0.0000E+00   etotal=   0.6266E-06

 n o d a l   f o r c e/e n e r g y    o u t p u t  t=   5.60184E-04

 pressure boundary condition forces 

 nd#       1  xforce=   0.4390E-01   yforce=   0.2800E-01  zforce=   0.0000E+00   energy=   0.3115E-06
 nd#      11  xforce=   0.2800E-01   yforce=   0.2800E-01  zforce=   0.0000E+00   energy=   0.2406E-07
 nd#      23  xforce=   0.2800E-01   yforce=   0.4390E-01  zforce=   0.0000E+00   energy=   0.3115E-06
              xtotal=   0.9989E-01   ytotal=   0.9989E-01  ztotal=   0.0000E+00   etotal=   0.6471E-06

 n o d a l   f o r c e/e n e r g y    o u t p u t  t=   5.65269E-04

 pressure boundary condition forces 

 nd#       1  xforce=   0.4460E-01   yforce=   0.2825E-01  zforce=   0.0000E+00   energy=   0.3226E-06
 nd#      11  xforce=   0.2825E-01   yforce=   0.2825E-01  zforce=   0.0000E+00   energy=   0.2459E-07
 nd#      23  xforce=   0.2825E-01   yforce=   0.4460E-01  zforce=   0.0000E+00   energy=   0.3226E-06
              xtotal=   0.1011E+00   ytotal=   0.1011E+00  ztotal=   0.0000E+00   etotal=   0.6698E-06

 n o d a l   f o r c e/e n e r g y    o u t p u t  t=   5.70071E-04

 pressure boundary condition forces 

 nd#       1  xforce=   0.4519E-01   yforce=   0.2849E-01  zforce=   0.0000E+00   energy=   0.3318E-06
 nd#      11  xforce=   0.2849E-01   yforce=   0.2849E-01  zforce=   0.0000E+00   energy=   0.2506E-07
 nd#      23  xforce=   0.2849E-01   yforce=   0.4519E-01  zforce=   0.0000E+00   energy=   0.3318E-06
              xtotal=   0.1022E+00   ytotal=   0.1022E+00  ztotal=   0.0000E+00   etotal=   0.6887E-06

 n o d a l   f o r c e/e n e r g y    o u t p u t  t=   5.75156E-04

 pressure boundary condition forces 

 nd#       1  xforce=   0.4563E-01   yforce=   0.2874E-01  zforce=   0.0000E+00   energy=   0.3385E-06
 nd#      11  xforce=   0.2874E-01   yforce=   0.2874E-01  zforce=   0.0000E+00   energy=   0.2563E-07
 nd#      23  xforce=   0.2874E-01   yforce=   0.4563E-01  zforce=   0.0000E+00   energy=   0.3385E-06
              xtotal=   0.1031E+00   ytotal=   0.1031E+00  ztotal=   0.0000E+00   etotal=   0.7026E-06

 n o d a l   f o r c e/e n e r g y    o u t p u t  t=   5.80241E-04

 pressure boundary condition forces 

 nd#       1  xforce=   0.4588E-01   yforce=   0.2900E-01  zforce=   0.0000E+00   energy=   0.3413E-06
 nd#      11  xforce=   0.2900E-01   yforce=   0.2900E-01  zforce=   0.0000E+00   energy=   0.2591E-07
 nd#      23  xforce=   0.2900E-01   yforce=   0.4588E-01  zforce=   0.0000E+00   energy=   0.3413E-06
              xtotal=   0.1039E+00   ytotal=   0.1039E+00  ztotal=   0.0000E+00   etotal=   0.7085E-06

 n o d a l   f o r c e/e n e r g y    o u t p u t  t=   5.85043E-04

 pressure boundary condition forces 

 nd#       1  xforce=   0.4600E-01   yforce=   0.2924E-01  zforce=   0.0000E+00   energy=   0.3419E-06
 nd#      11  xforce=   0.2924E-01   yforce=   0.2924E-01  zforce=   0.0000E+00   energy=   0.2624E-07
 nd#      23  xforce=   0.2924E-01   yforce=   0.4600E-01  zforce=   0.0000E+00   energy=   0.3419E-06
              xtotal=   0.1045E+00   ytotal=   0.1045E+00  ztotal=   0.0000E+00   etotal=   0.7099E-06

 n o d a l   f o r c e/e n e r g y    o u t p u t  t=   5.90128E-04

 pressure boundary condition forces 

 nd#       1  xforce=   0.4613E-01   yforce=   0.2949E-01  zforce=   0.0000E+00   energy=   0.3426E-06
 nd#      11  xforce=   0.2949E-01   yforce=   0.2949E-01  zforce=   0.0000E+00   energy=   0.2663E-07
 nd#      23  xforce=   0.2949E-01   yforce=   0.4613E-01  zforce=   0.0000E+00   energy=   0.3426E-06
              xtotal=   0.1051E+00   ytotal=   0.1051E+00  ztotal=   0.0000E+00   etotal=   0.7119E-06

 n o d a l   f o r c e/e n e r g y    o u t p u t  t=   5.95213E-04

 pressure boundary condition forces 

 nd#       1  xforce=   0.4640E-01   yforce=   0.2975E-01  zforce=   0.0000E+00   energy=   0.3460E-06
 nd#      11  xforce=   0.2975E-01   yforce=   0.2975E-01  zforce=   0.0000E+00   energy=   0.2691E-07
 nd#      23  xforce=   0.2975E-01   yforce=   0.4640E-01  zforce=   0.0000E+00   energy=   0.3460E-06
              xtotal=   0.1059E+00   ytotal=   0.1059E+00  ztotal=   0.0000E+00   etotal=   0.7189E-06

 n o d a l   f o r c e/e n e r g y    o u t p u t  t=   6.00015E-04

 pressure boundary condition forces 

 nd#       1  xforce=   0.4682E-01   yforce=   0.2999E-01  zforce=   0.0000E+00   energy=   0.3530E-06
 nd#      11  xforce=   0.2999E-01   yforce=   0.2999E-01  zforce=   0.0000E+00   energy=   0.2748E-07
 nd#      23  xforce=   0.2999E-01   yforce=   0.4682E-01  zforce=   0.0000E+00   energy=   0.3530E-06
              xtotal=   0.1068E+00   ytotal=   0.1068E+00  ztotal=   0.0000E+00   etotal=   0.7334E-06

 n o d a l   f o r c e/e n e r g y    o u t p u t  t=   6.05100E-04

 pressure boundary condition forces 

 nd#       1  xforce=   0.4743E-01   yforce=   0.3024E-01  zforce=   0.0000E+00   energy=   0.3636E-06
 nd#      11  xforce=   0.3024E-01   yforce=   0.3024E-01  zforce=   0.0000E+00   energy=   0.2804E-07
 nd#      23  xforce=   0.3024E-01   yforce=   0.4743E-01  zforce=   0.0000E+00   energy=   0.3636E-06
              xtotal=   0.1079E+00   ytotal=   0.1079E+00  ztotal=   0.0000E+00   etotal=   0.7552E-06

 n o d a l   f o r c e/e n e r g y    o u t p u t  t=   6.10185E-04

 pressure boundary condition forces 

 nd#       1  xforce=   0.4812E-01   yforce=   0.3050E-01  zforce=   0.0000E+00   energy=   0.3755E-06
 nd#      11  xforce=   0.3050E-01   yforce=   0.3050E-01  zforce=   0.0000E+00   energy=   0.2858E-07
 nd#      23  xforce=   0.3050E-01   yforce=   0.4812E-01  zforce=   0.0000E+00   energy=   0.3755E-06
              xtotal=   0.1091E+00   ytotal=   0.1091E+00  ztotal=   0.0000E+00   etotal=   0.7797E-06

 n o d a l   f o r c e/e n e r g y    o u t p u t  t=   6.15270E-04

 pressure boundary condition forces 

 nd#       1  xforce=   0.4873E-01   yforce=   0.3075E-01  zforce=   0.0000E+00   energy=   0.3861E-06
 nd#      11  xforce=   0.3075E-01   yforce=   0.3075E-01  zforce=   0.0000E+00   energy=   0.2929E-07
 nd#      23  xforce=   0.3075E-01   yforce=   0.4873E-01  zforce=   0.0000E+00   energy=   0.3861E-06
              xtotal=   0.1102E+00   ytotal=   0.1102E+00  ztotal=   0.0000E+00   etotal=   0.8015E-06

 n o d a l   f o r c e/e n e r g y    o u t p u t  t=   6.20072E-04

 pressure boundary condition forces 

 nd#       1  xforce=   0.4916E-01   yforce=   0.3099E-01  zforce=   0.0000E+00   energy=   0.3927E-06
 nd#      11  xforce=   0.3099E-01   yforce=   0.3099E-01  zforce=   0.0000E+00   energy=   0.2968E-07
 nd#      23  xforce=   0.3099E-01   yforce=   0.4916E-01  zforce=   0.0000E+00   energy=   0.3927E-06
              xtotal=   0.1111E+00   ytotal=   0.1111E+00  ztotal=   0.0000E+00   etotal=   0.8151E-06

 n o d a l   f o r c e/e n e r g y    o u t p u t  t=   6.25157E-04

 pressure boundary condition forces 

 nd#       1  xforce=   0.4942E-01   yforce=   0.3124E-01  zforce=   0.0000E+00   energy=   0.3959E-06
 nd#      11  xforce=   0.3124E-01   yforce=   0.3124E-01  zforce=   0.0000E+00   energy=   0.3008E-07
 nd#      23  xforce=   0.3124E-01   yforce=   0.4942E-01  zforce=   0.0000E+00   energy=   0.3959E-06
              xtotal=   0.1119E+00   ytotal=   0.1119E+00  ztotal=   0.0000E+00   etotal=   0.8218E-06

 n o d a l   f o r c e/e n e r g y    o u t p u t  t=   6.30242E-04

 pressure boundary condition forces 

 nd#       1  xforce=   0.4954E-01   yforce=   0.3150E-01  zforce=   0.0000E+00   energy=   0.3966E-06
 nd#      11  xforce=   0.3150E-01   yforce=   0.3150E-01  zforce=   0.0000E+00   energy=   0.3052E-07
 nd#      23  xforce=   0.3150E-01   yforce=   0.4954E-01  zforce=   0.0000E+00   energy=   0.3966E-06
              xtotal=   0.1125E+00   ytotal=   0.1125E+00  ztotal=   0.0000E+00   etotal=   0.8236E-06

 n o d a l   f o r c e/e n e r g y    o u t p u t  t=   6.35045E-04

 pressure boundary condition forces 

 nd#       1  xforce=   0.4968E-01   yforce=   0.3174E-01  zforce=   0.0000E+00   energy=   0.3973E-06
 nd#      11  xforce=   0.3174E-01   yforce=   0.3174E-01  zforce=   0.0000E+00   energy=   0.3073E-07
 nd#      23  xforce=   0.3174E-01   yforce=   0.4968E-01  zforce=   0.0000E+00   energy=   0.3973E-06
              xtotal=   0.1132E+00   ytotal=   0.1132E+00  ztotal=   0.0000E+00   etotal=   0.8252E-06

 n o d a l   f o r c e/e n e r g y    o u t p u t  t=   6.40129E-04

 pressure boundary condition forces 

 nd#       1  xforce=   0.4993E-01   yforce=   0.3199E-01  zforce=   0.0000E+00   energy=   0.4009E-06
 nd#      11  xforce=   0.3199E-01   yforce=   0.3199E-01  zforce=   0.0000E+00   energy=   0.3123E-07
 nd#      23  xforce=   0.3199E-01   yforce=   0.4993E-01  zforce=   0.0000E+00   energy=   0.4009E-06
              xtotal=   0.1139E+00   ytotal=   0.1139E+00  ztotal=   0.0000E+00   etotal=   0.8331E-06

 n o d a l   f o r c e/e n e r g y    o u t p u t  t=   6.45214E-04

 pressure boundary condition forces 

 nd#       1  xforce=   0.5037E-01   yforce=   0.3225E-01  zforce=   0.0000E+00   energy=   0.4088E-06
 nd#      11  xforce=   0.3225E-01   yforce=   0.3225E-01  zforce=   0.0000E+00   energy=   0.3180E-07
 nd#      23  xforce=   0.3225E-01   yforce=   0.5037E-01  zforce=   0.0000E+00   energy=   0.4088E-06
              xtotal=   0.1149E+00   ytotal=   0.1149E+00  ztotal=   0.0000E+00   etotal=   0.8495E-06

 n o d a l   f o r c e/e n e r g y    o u t p u t  t=   6.50017E-04

 pressure boundary condition forces 

 nd#       1  xforce=   0.5096E-01   yforce=   0.3249E-01  zforce=   0.0000E+00   energy=   0.4196E-06
 nd#      11  xforce=   0.3249E-01   yforce=   0.3249E-01  zforce=   0.0000E+00   energy=   0.3228E-07
 nd#      23  xforce=   0.3249E-01   yforce=   0.5096E-01  zforce=   0.0000E+00   energy=   0.4196E-06
              xtotal=   0.1159E+00   ytotal=   0.1159E+00  ztotal=   0.0000E+00   etotal=   0.8716E-06

 n o d a l   f o r c e/e n e r g y    o u t p u t  t=   6.55102E-04

 pressure boundary condition forces 

 nd#       1  xforce=   0.5165E-01   yforce=   0.3274E-01  zforce=   0.0000E+00   energy=   0.4326E-06
 nd#      11  xforce=   0.3274E-01   yforce=   0.3274E-01  zforce=   0.0000E+00   energy=   0.3305E-07
 nd#      23  xforce=   0.3274E-01   yforce=   0.5165E-01  zforce=   0.0000E+00   energy=   0.4326E-06
              xtotal=   0.1171E+00   ytotal=   0.1171E+00  ztotal=   0.0000E+00   etotal=   0.8983E-06

 n o d a l   f o r c e/e n e r g y    o u t p u t  t=   6.60186E-04

 pressure boundary condition forces 

 nd#       1  xforce=   0.5227E-01   yforce=   0.3300E-01  zforce=   0.0000E+00   energy=   0.4439E-06
 nd#      11  xforce=   0.3300E-01   yforce=   0.3300E-01  zforce=   0.0000E+00   energy=   0.3365E-07
 nd#      23  xforce=   0.3300E-01   yforce=   0.5227E-01  zforce=   0.0000E+00   energy=   0.4439E-06
              xtotal=   0.1183E+00   ytotal=   0.1183E+00  ztotal=   0.0000E+00   etotal=   0.9214E-06

 n o d a l   f o r c e/e n e r g y    o u t p u t  t=   6.65271E-04

 pressure boundary condition forces 

 nd#       1  xforce=   0.5272E-01   yforce=   0.3325E-01  zforce=   0.0000E+00   energy=   0.4513E-06
 nd#      11  xforce=   0.3325E-01   yforce=   0.3325E-01  zforce=   0.0000E+00   energy=   0.3411E-07
 nd#      23  xforce=   0.3325E-01   yforce=   0.5272E-01  zforce=   0.0000E+00   energy=   0.4513E-06
              xtotal=   0.1192E+00   ytotal=   0.1192E+00  ztotal=   0.0000E+00   etotal=   0.9368E-06

 n o d a l   f o r c e/e n e r g y    o u t p u t  t=   6.70074E-04

 pressure boundary condition forces 

 nd#       1  xforce=   0.5295E-01   yforce=   0.3349E-01  zforce=   0.0000E+00   energy=   0.4545E-06
 nd#      11  xforce=   0.3349E-01   yforce=   0.3349E-01  zforce=   0.0000E+00   energy=   0.3466E-07
 nd#      23  xforce=   0.3349E-01   yforce=   0.5295E-01  zforce=   0.0000E+00   energy=   0.4545E-06
              xtotal=   0.1199E+00   ytotal=   0.1199E+00  ztotal=   0.0000E+00   etotal=   0.9438E-06

 n o d a l   f o r c e/e n e r g y    o u t p u t  t=   6.75159E-04

 pressure boundary condition forces 

 nd#       1  xforce=   0.5308E-01   yforce=   0.3374E-01  zforce=   0.0000E+00   energy=   0.4552E-06
 nd#      11  xforce=   0.3374E-01   yforce=   0.3374E-01  zforce=   0.0000E+00   energy=   0.3492E-07
 nd#      23  xforce=   0.3374E-01   yforce=   0.5308E-01  zforce=   0.0000E+00   energy=   0.4552E-06
              xtotal=   0.1206E+00   ytotal=   0.1206E+00  ztotal=   0.0000E+00   etotal=   0.9453E-06

 n o d a l   f o r c e/e n e r g y    o u t p u t  t=   6.80243E-04

 pressure boundary condition forces 

 nd#       1  xforce=   0.5321E-01   yforce=   0.3400E-01  zforce=   0.0000E+00   energy=   0.4561E-06
 nd#      11  xforce=   0.3400E-01   yforce=   0.3400E-01  zforce=   0.0000E+00   energy=   0.3531E-07
 nd#      23  xforce=   0.3400E-01   yforce=   0.5321E-01  zforce=   0.0000E+00   energy=   0.4561E-06
              xtotal=   0.1212E+00   ytotal=   0.1212E+00  ztotal=   0.0000E+00   etotal=   0.9475E-06

 n o d a l   f o r c e/e n e r g y    o u t p u t  t=   6.85046E-04

 pressure boundary condition forces 

 nd#       1  xforce=   0.5346E-01   yforce=   0.3424E-01  zforce=   0.0000E+00   energy=   0.4599E-06
 nd#      11  xforce=   0.3424E-01   yforce=   0.3424E-01  zforce=   0.0000E+00   energy=   0.3583E-07
 nd#      23  xforce=   0.3424E-01   yforce=   0.5346E-01  zforce=   0.0000E+00   energy=   0.4599E-06
              xtotal=   0.1219E+00   ytotal=   0.1219E+00  ztotal=   0.0000E+00   etotal=   0.9556E-06

 n o d a l   f o r c e/e n e r g y    o u t p u t  t=   6.90131E-04

 pressure boundary condition forces 

 nd#       1  xforce=   0.5392E-01   yforce=   0.3449E-01  zforce=   0.0000E+00   energy=   0.4682E-06
 nd#      11  xforce=   0.3449E-01   yforce=   0.3449E-01  zforce=   0.0000E+00   energy=   0.3627E-07
 nd#      23  xforce=   0.3449E-01   yforce=   0.5392E-01  zforce=   0.0000E+00   energy=   0.4682E-06
              xtotal=   0.1229E+00   ytotal=   0.1229E+00  ztotal=   0.0000E+00   etotal=   0.9726E-06

 n o d a l   f o r c e/e n e r g y    o u t p u t  t=   6.95216E-04

 pressure boundary condition forces 

 nd#       1  xforce=   0.5453E-01   yforce=   0.3475E-01  zforce=   0.0000E+00   energy=   0.4806E-06
 nd#      11  xforce=   0.3475E-01   yforce=   0.3475E-01  zforce=   0.0000E+00   energy=   0.3704E-07
 nd#      23  xforce=   0.3475E-01   yforce=   0.5453E-01  zforce=   0.0000E+00   energy=   0.4806E-06
              xtotal=   0.1240E+00   ytotal=   0.1240E+00  ztotal=   0.0000E+00   etotal=   0.9982E-06

 n o d a l   f o r c e/e n e r g y    o u t p u t  t=   7.00018E-04

 pressure boundary condition forces 

 nd#       1  xforce=   0.5518E-01   yforce=   0.3499E-01  zforce=   0.0000E+00   energy=   0.4936E-06
 nd#      11  xforce=   0.3499E-01   yforce=   0.3499E-01  zforce=   0.0000E+00   energy=   0.3771E-07
 nd#      23  xforce=   0.3499E-01   yforce=   0.5518E-01  zforce=   0.0000E+00   energy=   0.4936E-06
              xtotal=   0.1252E+00   ytotal=   0.1252E+00  ztotal=   0.0000E+00   etotal=   0.1025E-05

 n o d a l   f o r c e/e n e r g y    o u t p u t  t=   7.05103E-04

 pressure boundary condition forces 

 nd#       1  xforce=   0.5580E-01   yforce=   0.3524E-01  zforce=   0.0000E+00   energy=   0.5057E-06
 nd#      11  xforce=   0.3524E-01   yforce=   0.3524E-01  zforce=   0.0000E+00   energy=   0.3829E-07
 nd#      23  xforce=   0.3524E-01   yforce=   0.5580E-01  zforce=   0.0000E+00   energy=   0.5057E-06
              xtotal=   0.1263E+00   ytotal=   0.1263E+00  ztotal=   0.0000E+00   etotal=   0.1050E-05

 n o d a l   f o r c e/e n e r g y    o u t p u t  t=   7.10188E-04

 pressure boundary condition forces 

 nd#       1  xforce=   0.5624E-01   yforce=   0.3550E-01  zforce=   0.0000E+00   energy=   0.5138E-06
 nd#      11  xforce=   0.3550E-01   yforce=   0.3550E-01  zforce=   0.0000E+00   energy=   0.3900E-07
 nd#      23  xforce=   0.3550E-01   yforce=   0.5624E-01  zforce=   0.0000E+00   energy=   0.5138E-06
              xtotal=   0.1272E+00   ytotal=   0.1272E+00  ztotal=   0.0000E+00   etotal=   0.1067E-05

 n o d a l   f o r c e/e n e r g y    o u t p u t  t=   7.15273E-04

 pressure boundary condition forces 

 nd#       1  xforce=   0.5651E-01   yforce=   0.3575E-01  zforce=   0.0000E+00   energy=   0.5173E-06
 nd#      11  xforce=   0.3575E-01   yforce=   0.3575E-01  zforce=   0.0000E+00   energy=   0.3939E-07
 nd#      23  xforce=   0.3575E-01   yforce=   0.5651E-01  zforce=   0.0000E+00   energy=   0.5173E-06
              xtotal=   0.1280E+00   ytotal=   0.1280E+00  ztotal=   0.0000E+00   etotal=   0.1074E-05

 n o d a l   f o r c e/e n e r g y    o u t p u t  t=   7.20075E-04

 pressure boundary condition forces 

 nd#       1  xforce=   0.5662E-01   yforce=   0.3599E-01  zforce=   0.0000E+00   energy=   0.5179E-06
 nd#      11  xforce=   0.3599E-01   yforce=   0.3599E-01  zforce=   0.0000E+00   energy=   0.3973E-07
 nd#      23  xforce=   0.3599E-01   yforce=   0.5662E-01  zforce=   0.0000E+00   energy=   0.5179E-06
              xtotal=   0.1286E+00   ytotal=   0.1286E+00  ztotal=   0.0000E+00   etotal=   0.1076E-05

 n o d a l   f o r c e/e n e r g y    o u t p u t  t=   7.25160E-04

 pressure boundary condition forces 

 nd#       1  xforce=   0.5675E-01   yforce=   0.3624E-01  zforce=   0.0000E+00   energy=   0.5189E-06
 nd#      11  xforce=   0.3624E-01   yforce=   0.3624E-01  zforce=   0.0000E+00   energy=   0.4024E-07
 nd#      23  xforce=   0.3624E-01   yforce=   0.5675E-01  zforce=   0.0000E+00   energy=   0.5189E-06
              xtotal=   0.1292E+00   ytotal=   0.1292E+00  ztotal=   0.0000E+00   etotal=   0.1078E-05

 n o d a l   f o r c e/e n e r g y    o u t p u t  t=   7.30245E-04

 pressure boundary condition forces 

 nd#       1  xforce=   0.5701E-01   yforce=   0.3650E-01  zforce=   0.0000E+00   energy=   0.5231E-06
 nd#      11  xforce=   0.3650E-01   yforce=   0.3650E-01  zforce=   0.0000E+00   energy=   0.4061E-07
 nd#      23  xforce=   0.3650E-01   yforce=   0.5701E-01  zforce=   0.0000E+00   energy=   0.5231E-06
              xtotal=   0.1300E+00   ytotal=   0.1300E+00  ztotal=   0.0000E+00   etotal=   0.1087E-05

 n o d a l   f o r c e/e n e r g y    o u t p u t  t=   7.35047E-04

 pressure boundary condition forces 

 nd#       1  xforce=   0.5744E-01   yforce=   0.3674E-01  zforce=   0.0000E+00   energy=   0.5317E-06
 nd#      11  xforce=   0.3674E-01   yforce=   0.3674E-01  zforce=   0.0000E+00   energy=   0.4125E-07
 nd#      23  xforce=   0.3674E-01   yforce=   0.5744E-01  zforce=   0.0000E+00   energy=   0.5317E-06
              xtotal=   0.1309E+00   ytotal=   0.1309E+00  ztotal=   0.0000E+00   etotal=   0.1105E-05

 n o d a l   f o r c e/e n e r g y    o u t p u t  t=   7.40132E-04

 pressure boundary condition forces 

 nd#       1  xforce=   0.5806E-01   yforce=   0.3699E-01  zforce=   0.0000E+00   energy=   0.5448E-06
 nd#      11  xforce=   0.3699E-01   yforce=   0.3699E-01  zforce=   0.0000E+00   energy=   0.4202E-07
 nd#      23  xforce=   0.3699E-01   yforce=   0.5806E-01  zforce=   0.0000E+00   energy=   0.5448E-06
              xtotal=   0.1320E+00   ytotal=   0.1320E+00  ztotal=   0.0000E+00   etotal=   0.1132E-05

 n o d a l   f o r c e/e n e r g y    o u t p u t  t=   7.45217E-04

 pressure boundary condition forces 

 nd#       1  xforce=   0.5875E-01   yforce=   0.3725E-01  zforce=   0.0000E+00   energy=   0.5594E-06
 nd#      11  xforce=   0.3725E-01   yforce=   0.3725E-01  zforce=   0.0000E+00   energy=   0.4264E-07
 nd#      23  xforce=   0.3725E-01   yforce=   0.5875E-01  zforce=   0.0000E+00   energy=   0.5594E-06
              xtotal=   0.1332E+00   ytotal=   0.1332E+00  ztotal=   0.0000E+00   etotal=   0.1161E-05

 n o d a l   f o r c e/e n e r g y    o u t p u t  t=   7.50019E-04

 pressure boundary condition forces 

 nd#       1  xforce=   0.5933E-01   yforce=   0.3749E-01  zforce=   0.0000E+00   energy=   0.5716E-06
 nd#      11  xforce=   0.3749E-01   yforce=   0.3749E-01  zforce=   0.0000E+00   energy=   0.4343E-07
 nd#      23  xforce=   0.3749E-01   yforce=   0.5933E-01  zforce=   0.0000E+00   energy=   0.5716E-06
              xtotal=   0.1343E+00   ytotal=   0.1343E+00  ztotal=   0.0000E+00   etotal=   0.1187E-05

 n o d a l   f o r c e/e n e r g y    o u t p u t  t=   7.55104E-04

 pressure boundary condition forces 

 nd#       1  xforce=   0.5978E-01   yforce=   0.3774E-01  zforce=   0.0000E+00   energy=   0.5802E-06
 nd#      11  xforce=   0.3774E-01   yforce=   0.3774E-01  zforce=   0.0000E+00   energy=   0.4401E-07
 nd#      23  xforce=   0.3774E-01   yforce=   0.5978E-01  zforce=   0.0000E+00   energy=   0.5802E-06
              xtotal=   0.1353E+00   ytotal=   0.1353E+00  ztotal=   0.0000E+00   etotal=   0.1204E-05

 n o d a l   f o r c e/e n e r g y    o u t p u t  t=   7.60189E-04

 pressure boundary condition forces 

 nd#       1  xforce=   0.6004E-01   yforce=   0.3800E-01  zforce=   0.0000E+00   energy=   0.5839E-06
 nd#      11  xforce=   0.3800E-01   yforce=   0.3800E-01  zforce=   0.0000E+00   energy=   0.4442E-07
 nd#      23  xforce=   0.3800E-01   yforce=   0.6004E-01  zforce=   0.0000E+00   energy=   0.5839E-06
              xtotal=   0.1360E+00   ytotal=   0.1360E+00  ztotal=   0.0000E+00   etotal=   0.1212E-05

 n o d a l   f o r c e/e n e r g y    o u t p u t  t=   7.65274E-04

 pressure boundary condition forces 

 nd#       1  xforce=   0.6016E-01   yforce=   0.3825E-01  zforce=   0.0000E+00   energy=   0.5848E-06
[...]
 nd#      23  xforce=   0.1317E+00   yforce=   0.2074E+00  zforce=   0.0000E+00   energy=   0.6961E-05
              xtotal=   0.4709E+00   ytotal=   0.4709E+00  ztotal=   0.0000E+00   etotal=   0.1446E-04

 n o d a l   f o r c e/e n e r g y    o u t p u t  t=   2.64018E-03

 pressure boundary condition forces 

 nd#       1  xforce=   0.2080E+00   yforce=   0.1320E+00  zforce=   0.0000E+00   energy=   0.7005E-05
 nd#      11  xforce=   0.1320E+00   yforce=   0.1320E+00  zforce=   0.0000E+00   energy=   0.5358E-06
 nd#      23  xforce=   0.1320E+00   yforce=   0.2080E+00  zforce=   0.0000E+00   energy=   0.7005E-05
              xtotal=   0.4720E+00   ytotal=   0.4720E+00  ztotal=   0.0000E+00   etotal=   0.1455E-04

 n o d a l   f o r c e/e n e r g y    o u t p u t  t=   2.64526E-03

 pressure boundary condition forces 

 nd#       1  xforce=   0.2084E+00   yforce=   0.1322E+00  zforce=   0.0000E+00   energy=   0.7033E-05
 nd#      11  xforce=   0.1323E+00   yforce=   0.1323E+00  zforce=   0.0000E+00   energy=   0.5382E-06
 nd#      23  xforce=   0.1322E+00   yforce=   0.2084E+00  zforce=   0.0000E+00   energy=   0.7033E-05
              xtotal=   0.4729E+00   ytotal=   0.4729E+00  ztotal=   0.0000E+00   etotal=   0.1461E-04

 n o d a l   f o r c e/e n e r g y    o u t p u t  t=   2.65006E-03

 pressure boundary condition forces 

 nd#       1  xforce=   0.2087E+00   yforce=   0.1325E+00  zforce=   0.0000E+00   energy=   0.7044E-05
 nd#      11  xforce=   0.1325E+00   yforce=   0.1325E+00  zforce=   0.0000E+00   energy=   0.5393E-06
 nd#      23  xforce=   0.1325E+00   yforce=   0.2087E+00  zforce=   0.0000E+00   energy=   0.7044E-05
              xtotal=   0.4737E+00   ytotal=   0.4737E+00  ztotal=   0.0000E+00   etotal=   0.1463E-04

 n o d a l   f o r c e/e n e r g y    o u t p u t  t=   2.65515E-03

 pressure boundary condition forces 

 nd#       1  xforce=   0.2088E+00   yforce=   0.1327E+00  zforce=   0.0000E+00   energy=   0.7047E-05
 nd#      11  xforce=   0.1327E+00   yforce=   0.1327E+00  zforce=   0.0000E+00   energy=   0.5411E-06
 nd#      23  xforce=   0.1327E+00   yforce=   0.2088E+00  zforce=   0.0000E+00   energy=   0.7047E-05
              xtotal=   0.4743E+00   ytotal=   0.4743E+00  ztotal=   0.0000E+00   etotal=   0.1463E-04

 n o d a l   f o r c e/e n e r g y    o u t p u t  t=   2.66023E-03

 pressure boundary condition forces 

 nd#       1  xforce=   0.2089E+00   yforce=   0.1330E+00  zforce=   0.0000E+00   energy=   0.7051E-05
 nd#      11  xforce=   0.1330E+00   yforce=   0.1330E+00  zforce=   0.0000E+00   energy=   0.5425E-06
 nd#      23  xforce=   0.1330E+00   yforce=   0.2089E+00  zforce=   0.0000E+00   energy=   0.7051E-05
              xtotal=   0.4749E+00   ytotal=   0.4749E+00  ztotal=   0.0000E+00   etotal=   0.1464E-04

 n o d a l   f o r c e/e n e r g y    o u t p u t  t=   2.66504E-03

 pressure boundary condition forces 

 nd#       1  xforce=   0.2092E+00   yforce=   0.1332E+00  zforce=   0.0000E+00   energy=   0.7067E-05
 nd#      11  xforce=   0.1332E+00   yforce=   0.1332E+00  zforce=   0.0000E+00   energy=   0.5440E-06
 nd#      23  xforce=   0.1332E+00   yforce=   0.2092E+00  zforce=   0.0000E+00   energy=   0.7067E-05
              xtotal=   0.4757E+00   ytotal=   0.4757E+00  ztotal=   0.0000E+00   etotal=   0.1468E-04

 n o d a l   f o r c e/e n e r g y    o u t p u t  t=   2.67012E-03

 pressure boundary condition forces 

 nd#       1  xforce=   0.2097E+00   yforce=   0.1335E+00  zforce=   0.0000E+00   energy=   0.7102E-05
 nd#      11  xforce=   0.1335E+00   yforce=   0.1335E+00  zforce=   0.0000E+00   energy=   0.5467E-06
 nd#      23  xforce=   0.1335E+00   yforce=   0.2097E+00  zforce=   0.0000E+00   energy=   0.7102E-05
              xtotal=   0.4767E+00   ytotal=   0.4767E+00  ztotal=   0.0000E+00   etotal=   0.1475E-04

 n o d a l   f o r c e/e n e r g y    o u t p u t  t=   2.67521E-03

 pressure boundary condition forces 

 nd#       1  xforce=   0.2103E+00   yforce=   0.1337E+00  zforce=   0.0000E+00   energy=   0.7150E-05
 nd#      11  xforce=   0.1337E+00   yforce=   0.1337E+00  zforce=   0.0000E+00   energy=   0.5490E-06
 nd#      23  xforce=   0.1337E+00   yforce=   0.2103E+00  zforce=   0.0000E+00   energy=   0.7150E-05
              xtotal=   0.4778E+00   ytotal=   0.4778E+00  ztotal=   0.0000E+00   etotal=   0.1485E-04

 n o d a l   f o r c e/e n e r g y    o u t p u t  t=   2.68029E-03

 pressure boundary condition forces 

 nd#       1  xforce=   0.2110E+00   yforce=   0.1340E+00  zforce=   0.0000E+00   energy=   0.7203E-05
 nd#      11  xforce=   0.1340E+00   yforce=   0.1340E+00  zforce=   0.0000E+00   energy=   0.5517E-06
 nd#      23  xforce=   0.1340E+00   yforce=   0.2110E+00  zforce=   0.0000E+00   energy=   0.7203E-05
              xtotal=   0.4790E+00   ytotal=   0.4790E+00  ztotal=   0.0000E+00   etotal=   0.1496E-04

 n o d a l   f o r c e/e n e r g y    o u t p u t  t=   2.68509E-03

 pressure boundary condition forces 

 nd#       1  xforce=   0.2116E+00   yforce=   0.1342E+00  zforce=   0.0000E+00   energy=   0.7245E-05
 nd#      11  xforce=   0.1342E+00   yforce=   0.1342E+00  zforce=   0.0000E+00   energy=   0.5544E-06
 nd#      23  xforce=   0.1342E+00   yforce=   0.2116E+00  zforce=   0.0000E+00   energy=   0.7245E-05
              xtotal=   0.4800E+00   ytotal=   0.4800E+00  ztotal=   0.0000E+00   etotal=   0.1504E-04

 n o d a l   f o r c e/e n e r g y    o u t p u t  t=   2.69018E-03

 pressure boundary condition forces 

 nd#       1  xforce=   0.2120E+00   yforce=   0.1345E+00  zforce=   0.0000E+00   energy=   0.7274E-05
 nd#      11  xforce=   0.1345E+00   yforce=   0.1345E+00  zforce=   0.0000E+00   energy=   0.5561E-06
 nd#      23  xforce=   0.1345E+00   yforce=   0.2120E+00  zforce=   0.0000E+00   energy=   0.7274E-05
              xtotal=   0.4810E+00   ytotal=   0.4810E+00  ztotal=   0.0000E+00   etotal=   0.1510E-04

 n o d a l   f o r c e/e n e r g y    o u t p u t  t=   2.69526E-03

 pressure boundary condition forces 

 nd#       1  xforce=   0.2122E+00   yforce=   0.1347E+00  zforce=   0.0000E+00   energy=   0.7285E-05
 nd#      11  xforce=   0.1348E+00   yforce=   0.1348E+00  zforce=   0.0000E+00   energy=   0.5581E-06
 nd#      23  xforce=   0.1347E+00   yforce=   0.2122E+00  zforce=   0.0000E+00   energy=   0.7285E-05
              xtotal=   0.4817E+00   ytotal=   0.4817E+00  ztotal=   0.0000E+00   etotal=   0.1513E-04

 n o d a l   f o r c e/e n e r g y    o u t p u t  t=   2.70006E-03

 pressure boundary condition forces 

 nd#       1  xforce=   0.2123E+00   yforce=   0.1350E+00  zforce=   0.0000E+00   energy=   0.7287E-05
 nd#      11  xforce=   0.1350E+00   yforce=   0.1350E+00  zforce=   0.0000E+00   energy=   0.5596E-06
 nd#      23  xforce=   0.1350E+00   yforce=   0.2123E+00  zforce=   0.0000E+00   energy=   0.7287E-05
              xtotal=   0.4823E+00   ytotal=   0.4823E+00  ztotal=   0.0000E+00   etotal=   0.1513E-04

 n o d a l   f o r c e/e n e r g y    o u t p u t  t=   2.70515E-03

 pressure boundary condition forces 

 nd#       1  xforce=   0.2125E+00   yforce=   0.1352E+00  zforce=   0.0000E+00   energy=   0.7292E-05
 nd#      11  xforce=   0.1352E+00   yforce=   0.1352E+00  zforce=   0.0000E+00   energy=   0.5607E-06
 nd#      23  xforce=   0.1352E+00   yforce=   0.2125E+00  zforce=   0.0000E+00   energy=   0.7292E-05
              xtotal=   0.4830E+00   ytotal=   0.4830E+00  ztotal=   0.0000E+00   etotal=   0.1514E-04

 n o d a l   f o r c e/e n e r g y    o u t p u t  t=   2.71023E-03

 pressure boundary condition forces 

 nd#       1  xforce=   0.2127E+00   yforce=   0.1355E+00  zforce=   0.0000E+00   energy=   0.7310E-05
 nd#      11  xforce=   0.1355E+00   yforce=   0.1355E+00  zforce=   0.0000E+00   energy=   0.5630E-06
 nd#      23  xforce=   0.1355E+00   yforce=   0.2127E+00  zforce=   0.0000E+00   energy=   0.7310E-05
              xtotal=   0.4837E+00   ytotal=   0.4837E+00  ztotal=   0.0000E+00   etotal=   0.1518E-04

 n o d a l   f o r c e/e n e r g y    o u t p u t  t=   2.71504E-03

 pressure boundary condition forces 

 nd#       1  xforce=   0.2132E+00   yforce=   0.1357E+00  zforce=   0.0000E+00   energy=   0.7343E-05
 nd#      11  xforce=   0.1357E+00   yforce=   0.1357E+00  zforce=   0.0000E+00   energy=   0.5650E-06
 nd#      23  xforce=   0.1357E+00   yforce=   0.2132E+00  zforce=   0.0000E+00   energy=   0.7343E-05
              xtotal=   0.4847E+00   ytotal=   0.4847E+00  ztotal=   0.0000E+00   etotal=   0.1525E-04

 n o d a l   f o r c e/e n e r g y    o u t p u t  t=   2.72012E-03

 pressure boundary condition forces 

 nd#       1  xforce=   0.2138E+00   yforce=   0.1360E+00  zforce=   0.0000E+00   energy=   0.7392E-05
 nd#      11  xforce=   0.1360E+00   yforce=   0.1360E+00  zforce=   0.0000E+00   energy=   0.5675E-06
 nd#      23  xforce=   0.1360E+00   yforce=   0.2138E+00  zforce=   0.0000E+00   energy=   0.7392E-05
              xtotal=   0.4858E+00   ytotal=   0.4858E+00  ztotal=   0.0000E+00   etotal=   0.1535E-04

 n o d a l   f o r c e/e n e r g y    o u t p u t  t=   2.72521E-03

 pressure boundary condition forces 

 nd#       1  xforce=   0.2145E+00   yforce=   0.1362E+00  zforce=   0.0000E+00   energy=   0.7446E-05
 nd#      11  xforce=   0.1362E+00   yforce=   0.1362E+00  zforce=   0.0000E+00   energy=   0.5707E-06
 nd#      23  xforce=   0.1362E+00   yforce=   0.2145E+00  zforce=   0.0000E+00   energy=   0.7446E-05
              xtotal=   0.4870E+00   ytotal=   0.4870E+00  ztotal=   0.0000E+00   etotal=   0.1546E-04

 n o d a l   f o r c e/e n e r g y    o u t p u t  t=   2.73029E-03

 pressure boundary condition forces 

 nd#       1  xforce=   0.2151E+00   yforce=   0.1365E+00  zforce=   0.0000E+00   energy=   0.7491E-05
 nd#      11  xforce=   0.1365E+00   yforce=   0.1365E+00  zforce=   0.0000E+00   energy=   0.5729E-06
 nd#      23  xforce=   0.1365E+00   yforce=   0.2151E+00  zforce=   0.0000E+00   energy=   0.7491E-05
              xtotal=   0.4881E+00   ytotal=   0.4881E+00  ztotal=   0.0000E+00   etotal=   0.1555E-04

 n o d a l   f o r c e/e n e r g y    o u t p u t  t=   2.73509E-03

 pressure boundary condition forces 

 nd#       1  xforce=   0.2155E+00   yforce=   0.1367E+00  zforce=   0.0000E+00   energy=   0.7518E-05
 nd#      11  xforce=   0.1367E+00   yforce=   0.1367E+00  zforce=   0.0000E+00   energy=   0.5750E-06
 nd#      23  xforce=   0.1367E+00   yforce=   0.2155E+00  zforce=   0.0000E+00   energy=   0.7518E-05
              xtotal=   0.4890E+00   ytotal=   0.4890E+00  ztotal=   0.0000E+00   etotal=   0.1561E-04

 n o d a l   f o r c e/e n e r g y    o u t p u t  t=   2.74018E-03

 pressure boundary condition forces 

 nd#       1  xforce=   0.2157E+00   yforce=   0.1370E+00  zforce=   0.0000E+00   energy=   0.7530E-05
 nd#      11  xforce=   0.1370E+00   yforce=   0.1370E+00  zforce=   0.0000E+00   energy=   0.5770E-06
 nd#      23  xforce=   0.1370E+00   yforce=   0.2157E+00  zforce=   0.0000E+00   energy=   0.7530E-05
              xtotal=   0.4897E+00   ytotal=   0.4897E+00  ztotal=   0.0000E+00   etotal=   0.1564E-04

 n o d a l   f o r c e/e n e r g y    o u t p u t  t=   2.74526E-03

 pressure boundary condition forces 

 nd#       1  xforce=   0.2159E+00   yforce=   0.1372E+00  zforce=   0.0000E+00   energy=   0.7532E-05
 nd#      11  xforce=   0.1373E+00   yforce=   0.1373E+00  zforce=   0.0000E+00   energy=   0.5780E-06
 nd#      23  xforce=   0.1372E+00   yforce=   0.2159E+00  zforce=   0.0000E+00   energy=   0.7532E-05
              xtotal=   0.4904E+00   ytotal=   0.4904E+00  ztotal=   0.0000E+00   etotal=   0.1564E-04

 n o d a l   f o r c e/e n e r g y    o u t p u t  t=   2.75007E-03

 pressure boundary condition forces 

 nd#       1  xforce=   0.2160E+00   yforce=   0.1375E+00  zforce=   0.0000E+00   energy=   0.7537E-05
 nd#      11  xforce=   0.1375E+00   yforce=   0.1375E+00  zforce=   0.0000E+00   energy=   0.5799E-06
 nd#      23  xforce=   0.1375E+00   yforce=   0.2160E+00  zforce=   0.0000E+00   energy=   0.7537E-05
              xtotal=   0.4910E+00   ytotal=   0.4910E+00  ztotal=   0.0000E+00   etotal=   0.1565E-04

 n o d a l   f o r c e/e n e r g y    o u t p u t  t=   2.75515E-03

 pressure boundary condition forces 

 nd#       1  xforce=   0.2163E+00   yforce=   0.1377E+00  zforce=   0.0000E+00   energy=   0.7554E-05
 nd#      11  xforce=   0.1377E+00   yforce=   0.1377E+00  zforce=   0.0000E+00   energy=   0.5817E-06
 nd#      23  xforce=   0.1377E+00   yforce=   0.2163E+00  zforce=   0.0000E+00   energy=   0.7555E-05
              xtotal=   0.4918E+00   ytotal=   0.4918E+00  ztotal=   0.0000E+00   etotal=   0.1569E-04

 n o d a l   f o r c e/e n e r g y    o u t p u t  t=   2.76024E-03

 pressure boundary condition forces 

 nd#       1  xforce=   0.2168E+00   yforce=   0.1380E+00  zforce=   0.0000E+00   energy=   0.7590E-05
 nd#      11  xforce=   0.1380E+00   yforce=   0.1380E+00  zforce=   0.0000E+00   energy=   0.5838E-06
 nd#      23  xforce=   0.1380E+00   yforce=   0.2168E+00  zforce=   0.0000E+00   energy=   0.7590E-05
              xtotal=   0.4928E+00   ytotal=   0.4928E+00  ztotal=   0.0000E+00   etotal=   0.1576E-04

 n o d a l   f o r c e/e n e r g y    o u t p u t  t=   2.76504E-03

 pressure boundary condition forces 

 nd#       1  xforce=   0.2174E+00   yforce=   0.1382E+00  zforce=   0.0000E+00   energy=   0.7638E-05
 nd#      11  xforce=   0.1382E+00   yforce=   0.1382E+00  zforce=   0.0000E+00   energy=   0.5868E-06
 nd#      23  xforce=   0.1382E+00   yforce=   0.2174E+00  zforce=   0.0000E+00   energy=   0.7638E-05
              xtotal=   0.4938E+00   ytotal=   0.4938E+00  ztotal=   0.0000E+00   etotal=   0.1586E-04

 n o d a l   f o r c e/e n e r g y    o u t p u t  t=   2.77012E-03

 pressure boundary condition forces 

 nd#       1  xforce=   0.2181E+00   yforce=   0.1385E+00  zforce=   0.0000E+00   energy=   0.7693E-05
 nd#      11  xforce=   0.1385E+00   yforce=   0.1385E+00  zforce=   0.0000E+00   energy=   0.5893E-06
 nd#      23  xforce=   0.1385E+00   yforce=   0.2181E+00  zforce=   0.0000E+00   energy=   0.7693E-05
              xtotal=   0.4950E+00   ytotal=   0.4950E+00  ztotal=   0.0000E+00   etotal=   0.1597E-04

 n o d a l   f o r c e/e n e r g y    o u t p u t  t=   2.77521E-03

 pressure boundary condition forces 

 nd#       1  xforce=   0.2187E+00   yforce=   0.1387E+00  zforce=   0.0000E+00   energy=   0.7739E-05
 nd#      11  xforce=   0.1387E+00   yforce=   0.1387E+00  zforce=   0.0000E+00   energy=   0.5919E-06
 nd#      23  xforce=   0.1387E+00   yforce=   0.2187E+00  zforce=   0.0000E+00   energy=   0.7739E-05
              xtotal=   0.4961E+00   ytotal=   0.4961E+00  ztotal=   0.0000E+00   etotal=   0.1607E-04

 n o d a l   f o r c e/e n e r g y    o u t p u t  t=   2.78029E-03

 pressure boundary condition forces 

 nd#       1  xforce=   0.2191E+00   yforce=   0.1390E+00  zforce=   0.0000E+00   energy=   0.7768E-05
 nd#      11  xforce=   0.1390E+00   yforce=   0.1390E+00  zforce=   0.0000E+00   energy=   0.5945E-06
 nd#      23  xforce=   0.1390E+00   yforce=   0.2191E+00  zforce=   0.0000E+00   energy=   0.7768E-05
              xtotal=   0.4971E+00   ytotal=   0.4971E+00  ztotal=   0.0000E+00   etotal=   0.1613E-04

 n o d a l   f o r c e/e n e r g y    o u t p u t  t=   2.78509E-03

 pressure boundary condition forces 

 nd#       1  xforce=   0.2193E+00   yforce=   0.1392E+00  zforce=   0.0000E+00   energy=   0.7779E-05
 nd#      11  xforce=   0.1392E+00   yforce=   0.1392E+00  zforce=   0.0000E+00   energy=   0.5956E-06
 nd#      23  xforce=   0.1392E+00   yforce=   0.2193E+00  zforce=   0.0000E+00   energy=   0.7779E-05
              xtotal=   0.4978E+00   ytotal=   0.4978E+00  ztotal=   0.0000E+00   etotal=   0.1615E-04

 n o d a l   f o r c e/e n e r g y    o u t p u t  t=   2.79018E-03

 pressure boundary condition forces 

 nd#       1  xforce=   0.2194E+00   yforce=   0.1395E+00  zforce=   0.0000E+00   energy=   0.7781E-05
 nd#      11  xforce=   0.1395E+00   yforce=   0.1395E+00  zforce=   0.0000E+00   energy=   0.5974E-06
 nd#      23  xforce=   0.1395E+00   yforce=   0.2194E+00  zforce=   0.0000E+00   energy=   0.7781E-05
              xtotal=   0.4984E+00   ytotal=   0.4984E+00  ztotal=   0.0000E+00   etotal=   0.1616E-04

 n o d a l   f o r c e/e n e r g y    o u t p u t  t=   2.79526E-03

 pressure boundary condition forces 

 nd#       1  xforce=   0.2196E+00   yforce=   0.1397E+00  zforce=   0.0000E+00   energy=   0.7786E-05
 nd#      11  xforce=   0.1398E+00   yforce=   0.1398E+00  zforce=   0.0000E+00   energy=   0.5992E-06
 nd#      23  xforce=   0.1397E+00   yforce=   0.2196E+00  zforce=   0.0000E+00   energy=   0.7786E-05
              xtotal=   0.4991E+00   ytotal=   0.4991E+00  ztotal=   0.0000E+00   etotal=   0.1617E-04

 n o d a l   f o r c e/e n e r g y    o u t p u t  t=   2.80007E-03

 pressure boundary condition forces 

 nd#       1  xforce=   0.2198E+00   yforce=   0.1400E+00  zforce=   0.0000E+00   energy=   0.7803E-05
 nd#      11  xforce=   0.1400E+00   yforce=   0.1400E+00  zforce=   0.0000E+00   energy=   0.6005E-06
 nd#      23  xforce=   0.1400E+00   yforce=   0.2198E+00  zforce=   0.0000E+00   energy=   0.7803E-05
              xtotal=   0.4998E+00   ytotal=   0.4998E+00  ztotal=   0.0000E+00   etotal=   0.1621E-04

 n o d a l   f o r c e/e n e r g y    o u t p u t  t=   2.80515E-03

 pressure boundary condition forces 

 nd#       1  xforce=   0.2203E+00   yforce=   0.1402E+00  zforce=   0.0000E+00   energy=   0.7840E-05
 nd#      11  xforce=   0.1402E+00   yforce=   0.1402E+00  zforce=   0.0000E+00   energy=   0.6034E-06
 nd#      23  xforce=   0.1402E+00   yforce=   0.2203E+00  zforce=   0.0000E+00   energy=   0.7840E-05
              xtotal=   0.5008E+00   ytotal=   0.5008E+00  ztotal=   0.0000E+00   etotal=   0.1628E-04

 n o d a l   f o r c e/e n e r g y    o u t p u t  t=   2.81024E-03

 pressure boundary condition forces 

 nd#       1  xforce=   0.2209E+00   yforce=   0.1405E+00  zforce=   0.0000E+00   energy=   0.7891E-05
 nd#      11  xforce=   0.1405E+00   yforce=   0.1405E+00  zforce=   0.0000E+00   energy=   0.6060E-06
 nd#      23  xforce=   0.1405E+00   yforce=   0.2209E+00  zforce=   0.0000E+00   energy=   0.7891E-05
              xtotal=   0.5019E+00   ytotal=   0.5019E+00  ztotal=   0.0000E+00   etotal=   0.1639E-04

 n o d a l   f o r c e/e n e r g y    o u t p u t  t=   2.81504E-03

 pressure boundary condition forces 

 nd#       1  xforce=   0.2216E+00   yforce=   0.1407E+00  zforce=   0.0000E+00   energy=   0.7943E-05
 nd#      11  xforce=   0.1407E+00   yforce=   0.1407E+00  zforce=   0.0000E+00   energy=   0.6084E-06
 nd#      23  xforce=   0.1407E+00   yforce=   0.2216E+00  zforce=   0.0000E+00   energy=   0.7943E-05
              xtotal=   0.5031E+00   ytotal=   0.5031E+00  ztotal=   0.0000E+00   etotal=   0.1650E-04

 n o d a l   f o r c e/e n e r g y    o u t p u t  t=   2.82012E-03

 pressure boundary condition forces 

 nd#       1  xforce=   0.2222E+00   yforce=   0.1410E+00  zforce=   0.0000E+00   energy=   0.7991E-05
 nd#      11  xforce=   0.1410E+00   yforce=   0.1410E+00  zforce=   0.0000E+00   energy=   0.6116E-06
 nd#      23  xforce=   0.1410E+00   yforce=   0.2222E+00  zforce=   0.0000E+00   energy=   0.7991E-05
              xtotal=   0.5042E+00   ytotal=   0.5042E+00  ztotal=   0.0000E+00   etotal=   0.1659E-04

 n o d a l   f o r c e/e n e r g y    o u t p u t  t=   2.82521E-03

 pressure boundary condition forces 

 nd#       1  xforce=   0.2226E+00   yforce=   0.1412E+00  zforce=   0.0000E+00   energy=   0.8020E-05
 nd#      11  xforce=   0.1412E+00   yforce=   0.1412E+00  zforce=   0.0000E+00   energy=   0.6134E-06
 nd#      23  xforce=   0.1412E+00   yforce=   0.2226E+00  zforce=   0.0000E+00   energy=   0.8020E-05
              xtotal=   0.5051E+00   ytotal=   0.5051E+00  ztotal=   0.0000E+00   etotal=   0.1665E-04
