 LS-DYNA keyword deck by LS-PrePost                                      
                         ls-dyna smp.123264 s           date 01/12/2018
  6000     1     1                                                    24
       1 0.      0.      0.     
       2 0.      0.      0.     
       3 0.      0.      0.     
       4 0.      0.      0.     
       5 0.      0.      0.     
       6 0.      0.      0.     
       7 0.      0.      0.     
       8 0.      0.      0.     
       9 0.      0.      0.     
      10 0.      0.      0.     
      11 0.      0.      0.     
      12 0.      0.      0.     
      13 0.      0.      0.     
      14 0.      0.      0.     
      15 0.      0.      0.     
      16 0.      0.      0.     
      17 0.      0.      0.     
      18 0.      0.      0.     
      19 0.      0.      0.     
      20 0.      0.      0.     
      21 0.      0.      0.     
      22 0.      0.      0.     
      23 0.      0.      0.     
      24 0.      0.      0.     
  6000     1     2                                                    24
       1 0.      2.171-8 0.     
       2 0.      1.937-8 0.     
       3-2.845-9 1.389-8 0.     
       4 5.249-9 1.407-8 0.     
       5-1.281-9 5.629-9 0.     
       6 5.307-9 5.118-9 0.     
       7 2.168-9 1.288-9 0.     
       8 3.774-9 7.91-10 0.     
       9 5.011-9 1.973-9 0.     
      10 2.585-9 1.954-9 0.     
      11 5.936-9 5.936-9 0.     
      12 3.646-9 4.500-9 0.     
      13 4.500-9 3.646-9 0.     
      14 1.973-9 5.011-9 0.     
      15 5.253-9 5.253-9 0.     
      16 1.954-9 2.585-9 0.     
      17 1.288-9 2.168-9 0.     
      18 7.91-10 3.774-9 0.     
      19 5.629-9-1.281-9 0.     
      20 5.118-9 5.307-9 0.     
      21 1.389-8-2.845-9 0.     
      22 1.407-8 5.249-9 0.     
      23 2.171-8 0.      0.     
      24 1.937-8 0.      0.     
  6000     1     3                                                    24
       1 0.      1.235-7 0.     
       2 0.      1.185-7 0.     
       3-1.008-8 1.032-7 0.     
       4 1.526-8 1.037-7 0.     
       5-1.137-8 7.272-8 0.     
       6 2.013-8 7.143-8 0.     
       7-6.988-9 4.158-8 0.     
       8 1.987-8 4.093-8 0.     
       9 8.06-10 1.954-8 0.     
      10 1.630-8 1.834-8 0.     
      11 1.078-8 1.078-8 0.     
      12 1.056-8 1.049-8 0.     
      13 1.049-8 1.056-8 0.     
      14 1.954-8 8.06-10 0.     
      15 1.074-8 1.074-8 0.     
      16 1.834-8 1.630-8 0.     
      17 4.158-8-6.988-9 0.     
      18 4.093-8 1.987-8 0.     
      19 7.272-8-1.137-8 0.     
      20 7.143-8 2.013-8 0.     
      21 1.032-7-1.008-8 0.     
      22 1.037-7 1.526-8 0.     
      23 1.235-7 0.      0.     
      24 1.185-7 0.      0.     
  6000     1     4                                                    24
       1 0.      3.608-7 0.     
       2 0.      3.525-7 0.     
       3-2.707-8 3.155-7 0.     
       4 3.846-8 3.154-7 0.     
       5-3.576-8 2.312-7 0.     
       6 5.620-8 2.284-7 0.     
       7-2.842-8 1.356-7 0.     
       8 5.847-8 1.343-7 0.     
       9-8.619-9 6.038-8 0.     
      10 4.865-8 5.657-8 0.     
      11 2.058-8 2.058-8 0.     
      12 2.723-8 2.419-8 0.     
      13 2.419-8 2.723-8 0.     
      14 6.038-8-8.619-9 0.     
      15 2.278-8 2.278-8 0.     
      16 5.657-8 4.865-8 0.     
      17 1.356-7-2.842-8 0.     
      18 1.343-7 5.847-8 0.     
      19 2.312-7-3.576-8 0.     
      20 2.284-7 5.620-8 0.     
      21 3.155-7-2.707-8 0.     
      22 3.154-7 3.846-8 0.     
      23 3.608-7 0.      0.     
      24 3.525-7 0.      0.     
  6000     1     5                                                    24
       1 0.      6.891-7 0.     
       2 0.      6.775-7 0.     
       3-4.898-8 6.137-7 0.     
       4 6.700-8 6.131-7 0.     
       5-7.003-8 4.601-7 0.     
       6 1.030-7 4.555-7 0.     
       7-6.295-8 2.745-7 0.     
       8 1.113-7 2.728-7 0.     
       9-2.869-8 1.189-7 0.     
      10 9.381-8 1.112-7 0.     
      11 2.911-8 2.911-8 0.     
      12 4.762-8 3.955-8 0.     
      13 3.955-8 4.762-8 0.     
      14 1.189-7-2.869-8 0.     
      15 3.511-8 3.511-8 0.     
      16 1.112-7 9.381-8 0.     
      17 2.745-7-6.295-8 0.     
      18 2.728-7 1.113-7 0.     
      19 4.601-7-7.003-8 0.     
      20 4.555-7 1.030-7 0.     
      21 6.137-7-4.898-8 0.     
      22 6.131-7 6.700-8 0.     
      23 6.891-7 0.      0.     
      24 6.775-7 0.      0.     
  6000     1     6                                                    24
       1 0.      1.083-6 0.     
       2 0.      1.068-6 0.     
       3-7.527-8 9.726-7 0.     
       4 1.007-7 9.713-7 0.     
       5-1.115-7 7.361-7 0.     
       6 1.587-7 7.295-7 0.     
       7-1.053-7 4.421-7 0.     
       8 1.747-7 4.399-7 0.     
       9-5.374-8 1.891-7 0.     
      10 1.480-7 1.766-7 0.     
      11 3.839-8 3.839-8 0.     
      12 7.170-8 5.734-8 0.     
      13 5.734-8 7.170-8 0.     
      14 1.891-7-5.374-8 0.     
      15 4.913-8 4.913-8 0.     
      16 1.766-7 1.480-7 0.     
      17 4.421-7-1.053-7 0.     
      18 4.399-7 1.747-7 0.     
      19 7.361-7-1.115-7 0.     
      20 7.295-7 1.587-7 0.     
      21 9.726-7-7.527-8 0.     
      22 9.713-7 1.007-7 0.     
      23 1.083-6 0.      0.     
      24 1.068-6 0.      0.     
  6000     1     7                                                    24
       1 0.      1.437-6 0.     
       2 0.      1.418-6 0.     
       3-9.953-8 1.293-6 0.     
       4 1.332-7 1.291-6 0.     
       5-1.482-7 9.788-7 0.     
       6 2.111-7 9.702-7 0.     
       7-1.401-7 5.876-7 0.     
       8 2.324-7 5.847-7 0.     
       9-7.163-8 2.511-7 0.     
      10 1.966-7 2.346-7 0.     
      11 5.009-8 5.009-8 0.     
      12 9.515-8 7.578-8 0.     
      13 7.578-8 9.515-8 0.     
      14 2.511-7-7.162-8 0.     
      15 6.468-8 6.468-8 0.     
      16 2.346-7 1.966-7 0.     
      17 5.876-7-1.401-7 0.     
      18 5.847-7 2.324-7 0.     
      19 9.788-7-1.482-7 0.     
      20 9.702-7 2.111-7 0.     
      21 1.293-6-9.953-8 0.     
      22 1.291-6 1.332-7 0.     
      23 1.437-6 0.      0.     
      24 1.418-6 0.      0.     
  6000     1     8                                                    24
       1 0.      1.663-6 0.     
       2 0.      1.641-6 0.     
       3-1.146-7 1.497-6 0.     
       4 1.528-7 1.494-6 0.     
       5-1.717-7 1.135-6 0.     
       6 2.429-7 1.125-6 0.     
       7-1.638-7 6.825-7 0.     
       8 2.684-7 6.794-7 0.     
       9-8.544-8 2.911-7 0.     
      10 2.274-7 2.718-7 0.     
      11 5.614-8 5.614-8 0.     
      12 1.090-7 8.629-8 0.     
      13 8.629-8 1.090-7 0.     
      14 2.911-7-8.544-8 0.     
      15 7.321-8 7.321-8 0.     
      16 2.718-7 2.274-7 0.     
      17 6.825-7-1.638-7 0.     
      18 6.794-7 2.684-7 0.     
      19 1.135-6-1.717-7 0.     
      20 1.125-6 2.429-7 0.     
      21 1.497-6-1.146-7 0.     
      22 1.494-6 1.528-7 0.     
      23 1.663-6 0.      0.     
      24 1.641-6 0.      0.     
  6000     1     9                                                    24
       1 0.      1.775-6 0.     
       2 0.      1.751-6 0.     
       3-1.231-7 1.595-6 0.     
       4 1.652-7 1.592-6 0.     
       5-1.828-7 1.206-6 0.     
       6 2.608-7 1.196-6 0.     
       7-1.722-7 7.240-7 0.     
       8 2.868-7 7.204-7 0.     
       9-8.739-8 3.097-7 0.     
      10 2.426-7 2.893-7 0.     
      11 6.312-8 6.312-8 0.     
      12 1.178-7 9.423-8 0.     
      13 9.423-8 1.178-7 0.     
      14 3.097-7-8.739-8 0.     
      15 8.080-8 8.080-8 0.     
      16 2.893-7 2.426-7 0.     
      17 7.240-7-1.722-7 0.     
      18 7.204-7 2.868-7 0.     
      19 1.206-6-1.828-7 0.     
      20 1.196-6 2.608-7 0.     
      21 1.595-6-1.231-7 0.     
      22 1.592-6 1.652-7 0.     
      23 1.775-6 0.      0.     
      24 1.751-6 0.      0.     
  6000     1    10                                                    24
       1 0.      1.801-6 0.     
       2 0.      1.774-6 0.     
       3-1.265-7 1.612-6 0.     
       4 1.714-7 1.610-6 0.     
       5-1.843-7 1.214-6 0.     
       6 2.672-7 1.202-6 0.     
       7-1.695-7 7.259-7 0.     
       8 2.912-7 7.218-7 0.     
       9-8.154-8 3.124-7 0.     
      10 2.457-7 2.920-7 0.     
      11 7.004-8 7.004-8 0.     
      12 1.222-7 9.958-8 0.     
      13 9.958-8 1.222-7 0.     
      14 3.124-7-8.154-8 0.     
      15 8.696-8 8.696-8 0.     
      16 2.920-7 2.457-7 0.     
      17 7.259-7-1.695-7 0.     
      18 7.218-7 2.912-7 0.     
      19 1.214-6-1.843-7 0.     
      20 1.202-6 2.672-7 0.     
      21 1.612-6-1.265-7 0.     
      22 1.610-6 1.714-7 0.     
      23 1.801-6 0.      0.     
      24 1.774-6 0.      0.     
  6000     1    11                                                    24
       1 0.      1.819-6 0.     
       2 0.      1.790-6 0.     
       3-1.286-7 1.624-6 0.     
       4 1.745-7 1.622-6 0.     
       5-1.856-7 1.221-6 0.     
       6 2.699-7 1.209-6 0.     
       7-1.696-7 7.299-7 0.     
       8 2.936-7 7.256-7 0.     
       9-8.025-8 3.146-7 0.     
      10 2.478-7 2.941-7 0.     
      11 7.312-8 7.312-8 0.     
      12 1.240-7 1.018-7 0.     
      13 1.018-7 1.240-7 0.     
      14 3.146-7-8.025-8 0.     
      15 8.959-8 8.959-8 0.     
      16 2.941-7 2.478-7 0.     
      17 7.299-7-1.696-7 0.     
      18 7.256-7 2.936-7 0.     
      19 1.221-6-1.856-7 0.     
      20 1.209-6 2.699-7 0.     
      21 1.624-6-1.286-7 0.     
      22 1.622-6 1.745-7 0.     
      23 1.819-6 0.      0.     
      24 1.790-6 0.      0.     
  6000     1    12                                                    24
       1 0.      1.923-6 0.     
       2 0.      1.891-6 0.     
       3-1.369-7 1.713-6 0.     
       4 1.871-7 1.711-6 0.     
       5-1.955-7 1.284-6 0.     
       6 2.874-7 1.271-6 0.     
       7-1.758-7 7.660-7 0.     
       8 3.108-7 7.611-7 0.     
       9-7.995-8 3.316-7 0.     
      10 2.618-7 3.100-7 0.     
      11 8.129-8 8.129-8 0.     
      12 1.330-7 1.104-7 0.     
      13 1.104-7 1.330-7 0.     
      14 3.316-7-7.995-8 0.     
      15 9.809-8 9.809-8 0.     
      16 3.100-7 2.618-7 0.     
      17 7.660-7-1.758-7 0.     
      18 7.611-7 3.108-7 0.     
      19 1.284-6-1.955-7 0.     
      20 1.271-6 2.874-7 0.     
      21 1.713-6-1.369-7 0.     
      22 1.711-6 1.871-7 0.     
      23 1.923-6 0.      0.     
      24 1.891-6 0.      0.     
  6000     1    13                                                    24
       1 0.      2.157-6 0.     
       2 0.      2.121-6 0.     
       3-1.531-7 1.923-6 0.     
       4 2.087-7 1.921-6 0.     
       5-2.196-7 1.443-6 0.     
       6 3.217-7 1.429-6 0.     
       7-1.985-7 8.610-7 0.     
       8 3.485-7 8.557-7 0.     
       9-9.149-8 3.722-7 0.     
      10 2.937-7 3.479-7 0.     
      11 8.941-8 8.941-8 0.     
      12 1.484-7 1.227-7 0.     
      13 1.227-7 1.484-7 0.     
      14 3.722-7-9.149-8 0.     
      15 1.086-7 1.086-7 0.     
      16 3.479-7 2.937-7 0.     
      17 8.610-7-1.985-7 0.     
      18 8.557-7 3.485-7 0.     
      19 1.443-6-2.196-7 0.     
      20 1.429-6 3.217-7 0.     
      21 1.923-6-1.531-7 0.     
      22 1.921-6 2.087-7 0.     
      23 2.157-6 0.      0.     
      24 2.121-6 0.      0.     
  6000     1    14                                                    24
       1 0.      2.504-6 0.     
       2 0.      2.465-6 0.     
       3-1.759-7 2.239-6 0.     
       4 2.382-7 2.237-6 0.     
       5-2.560-7 1.687-6 0.     
       6 3.707-7 1.671-6 0.     
       7-2.359-7 1.009-6 0.     
       8 4.043-7 1.004-6 0.     
       9-1.139-7 4.343-7 0.     
      10 3.414-7 4.058-7 0.     
      11 9.752-8 9.752-8 0.     
      12 1.694-7 1.382-7 0.     
      13 1.382-7 1.694-7 0.     
      14 4.343-7-1.139-7 0.     
      15 1.208-7 1.208-7 0.     
      16 4.058-7 3.414-7 0.     
      17 1.009-6-2.359-7 0.     
      18 1.004-6 4.043-7 0.     
      19 1.687-6-2.560-7 0.     
      20 1.671-6 3.707-7 0.     
      21 2.239-6-1.759-7 0.     
      22 2.237-6 2.382-7 0.     
      23 2.504-6 0.      0.     
      24 2.465-6 0.      0.     
  6000     1    15                                                    24
       1 0.      2.880-6 0.     
       2 0.      2.837-6 0.     
       3-2.016-7 2.580-6 0.     
       4 2.723-7 2.576-6 0.     
       5-2.952-7 1.945-6 0.     
       6 4.260-7 1.927-6 0.     
       7-2.735-7 1.165-6 0.     
       8 4.655-7 1.158-6 0.     
       9-1.337-7 5.003-7 0.     
      10 3.931-7 4.675-7 0.     
      11 1.092-7 1.092-7 0.     
      12 1.941-7 1.574-7 0.     
      13 1.574-7 1.941-7 0.     
      14 5.003-7-1.337-7 0.     
      15 1.367-7 1.367-7 0.     
      16 4.675-7 3.931-7 0.     
      17 1.165-6-2.735-7 0.     
      18 1.158-6 4.655-7 0.     
      19 1.945-6-2.952-7 0.     
      20 1.927-6 4.260-7 0.     
      21 2.580-6-2.016-7 0.     
      22 2.576-6 2.723-7 0.     
      23 2.880-6 0.      0.     
      24 2.837-6 0.      0.     
  6000     1    16                                                    24
       1 0.      3.232-6 0.     
       2 0.      3.186-6 0.     
       3-2.251-7 2.900-6 0.     
       4 3.025-7 2.896-6 0.     
       5-3.321-7 2.191-6 0.     
       6 4.757-7 2.171-6 0.     
       7-3.111-7 1.314-6 0.     
       8 5.220-7 1.307-6 0.     
       9-1.559-7 5.629-7 0.     
      10 4.414-7 5.259-7 0.     
      11 1.177-7 1.177-7 0.     
      12 2.156-7 1.733-7 0.     
      13 1.733-7 2.156-7 0.     
      14 5.629-7-1.559-7 0.     
      15 1.494-7 1.494-7 0.     
      16 5.259-7 4.414-7 0.     
      17 1.314-6-3.111-7 0.     
      18 1.307-6 5.220-7 0.     
      19 2.191-6-3.321-7 0.     
      20 2.171-6 4.757-7 0.     
      21 2.900-6-2.251-7 0.     
      22 2.896-6 3.025-7 0.     
      23 3.232-6 0.      0.     
      24 3.186-6 0.      0.     
  6000     1    17                                                    24
       1 0.      3.470-6 0.     
       2 0.      3.421-6 0.     
       3-2.415-7 3.114-6 0.     
       4 3.242-7 3.110-6 0.     
       5-3.567-7 2.354-6 0.     
       6 5.101-7 2.333-6 0.     
       7-3.349-7 1.412-6 0.     
       8 5.602-7 1.405-6 0.     
       9-1.686-7 6.049-7 0.     
      10 4.740-7 5.651-7 0.     
      11 1.255-7 1.255-7 0.     
      12 2.311-7 1.855-7 0.     
      13 1.855-7 2.311-7 0.     
      14 6.049-7-1.686-7 0.     
      15 1.597-7 1.597-7 0.     
      16 5.651-7 4.740-7 0.     
      17 1.412-6-3.349-7 0.     
      18 1.405-6 5.602-7 0.     
      19 2.354-6-3.567-7 0.     
      20 2.333-6 5.101-7 0.     
      21 3.114-6-2.415-7 0.     
      22 3.110-6 3.242-7 0.     
      23 3.470-6 0.      0.     
      24 3.421-6 0.      0.     
  6000     1    18                                                    24
       1 0.      3.577-6 0.     
       2 0.      3.525-6 0.     
       3-2.500-7 3.206-6 0.     
       4 3.369-7 3.202-6 0.     
       5-3.670-7 2.419-6 0.     
       6 5.281-7 2.397-6 0.     
       7-3.413-7 1.449-6 0.     
       8 5.778-7 1.442-6 0.     
       9-1.685-7 6.220-7 0.     
      10 4.883-7 5.811-7 0.     
      11 1.334-7 1.334-7 0.     
      12 2.402-7 1.940-7 0.     
      13 1.940-7 2.402-7 0.     
      14 6.220-7-1.685-7 0.     
      15 1.680-7 1.680-7 0.     
      16 5.811-7 4.883-7 0.     
      17 1.449-6-3.413-7 0.     
      18 1.442-6 5.778-7 0.     
      19 2.419-6-3.670-7 0.     
      20 2.397-6 5.281-7 0.     
      21 3.206-6-2.500-7 0.     
      22 3.202-6 3.369-7 0.     
      23 3.577-6 0.      0.     
      24 3.525-6 0.      0.     
  6000     1    19                                                    24
       1 0.      3.599-6 0.     
       2 0.      3.545-6 0.     
       3-2.522-7 3.222-6 0.     
       4 3.406-7 3.218-6 0.     
       5-3.687-7 2.429-6 0.     
       6 5.319-7 2.407-6 0.     
       7-3.414-7 1.455-6 0.     
       8 5.812-7 1.447-6 0.     
       9-1.669-7 6.252-7 0.     
      10 4.911-7 5.842-7 0.     
      11 1.372-7 1.372-7 0.     
      12 2.425-7 1.969-7 0.     
      13 1.969-7 2.425-7 0.     
      14 6.252-7-1.669-7 0.     
      15 1.713-7 1.713-7 0.     
      16 5.842-7 4.911-7 0.     
      17 1.455-6-3.414-7 0.     
      18 1.447-6 5.812-7 0.     
      19 2.429-6-3.687-7 0.     
      20 2.407-6 5.319-7 0.     
      21 3.222-6-2.522-7 0.     
      22 3.218-6 3.406-7 0.     
      23 3.599-6 0.      0.     
      24 3.545-6 0.      0.     
  6000     1    20                                                    24
       1 0.      3.623-6 0.     
       2 0.      3.566-6 0.     
       3-2.552-7 3.237-6 0.     
       4 3.462-7 3.234-6 0.     
       5-3.701-7 2.436-6 0.     
       6 5.377-7 2.412-6 0.     
       7-3.392-7 1.456-6 0.     
       8 5.852-7 1.448-6 0.     
       9-1.616-7 6.273-7 0.     
      10 4.938-7 5.863-7 0.     
      11 1.434-7 1.434-7 0.     
      12 2.464-7 2.017-7 0.     
      13 2.017-7 2.464-7 0.     
      14 6.273-7-1.616-7 0.     
      15 1.768-7 1.768-7 0.     
      16 5.863-7 4.938-7 0.     
      17 1.456-6-3.392-7 0.     
      18 1.448-6 5.852-7 0.     
      19 2.436-6-3.701-7 0.     
      20 2.412-6 5.377-7 0.     
      21 3.237-6-2.552-7 0.     
      22 3.234-6 3.462-7 0.     
      23 3.623-6 0.      0.     
      24 3.566-6 0.      0.     
  6000     1    21                                                    24
       1 0.      3.722-6 0.     
       2 0.      3.662-6 0.     
       3-2.630-7 3.323-6 0.     
       4 3.576-7 3.319-6 0.     
       5-3.796-7 2.497-6 0.     
       6 5.537-7 2.473-6 0.     
       7-3.458-7 1.492-6 0.     
       8 6.015-7 1.483-6 0.     
       9-1.623-7 6.434-7 0.     
      10 5.071-7 6.014-7 0.     
      11 1.506-7 1.506-7 0.     
      12 2.545-7 2.093-7 0.     
      13 2.093-7 2.545-7 0.     
      14 6.434-7-1.623-7 0.     
      15 1.843-7 1.843-7 0.     
      16 6.014-7 5.071-7 0.     
      17 1.492-6-3.458-7 0.     
      18 1.483-6 6.015-7 0.     
      19 2.497-6-3.796-7 0.     
      20 2.473-6 5.537-7 0.     
      21 3.323-6-2.630-7 0.     
      22 3.319-6 3.576-7 0.     
      23 3.722-6 0.      0.     
      24 3.662-6 0.      0.     
  6000     1    22                                                    24
       1 0.      3.951-6 0.     
       2 0.      3.888-6 0.     
       3-2.784-7 3.530-6 0.     
       4 3.777-7 3.526-6 0.     
       5-4.034-7 2.656-6 0.     
       6 5.860-7 2.630-6 0.     
       7-3.698-7 1.588-6 0.     
       8 6.381-7 1.579-6 0.     
       9-1.761-7 6.841-7 0.     
      10 5.385-7 6.393-7 0.     
      11 1.569-7 1.569-7 0.     
      12 2.686-7 2.200-7 0.     
      13 2.200-7 2.686-7 0.     
      14 6.841-7-1.761-7 0.     
      15 1.931-7 1.931-7 0.     
      16 6.393-7 5.385-7 0.     
      17 1.588-6-3.698-7 0.     
      18 1.579-6 6.381-7 0.     
      19 2.656-6-4.034-7 0.     
      20 2.630-6 5.860-7 0.     
      21 3.530-6-2.784-7 0.     
      22 3.526-6 3.777-7 0.     
      23 3.951-6 0.      0.     
      24 3.888-6 0.      0.     
  6000     1    23                                                    24
       1 0.      4.301-6 0.     
       2 0.      4.235-6 0.     
       3-3.025-7 3.846-6 0.     
       4 4.098-7 3.842-6 0.     
       5-4.399-7 2.896-6 0.     
       6 6.377-7 2.868-6 0.     
       7-4.044-7 1.732-6 0.     
       8 6.949-7 1.722-6 0.     
       9-1.942-7 7.456-7 0.     
      10 5.865-7 6.967-7 0.     
      11 1.681-7 1.681-7 0.     
      12 2.918-7 2.381-7 0.     
      13 2.381-7 2.918-7 0.     
      14 7.456-7-1.942-7 0.     
      15 2.082-7 2.082-7 0.     
      16 6.967-7 5.865-7 0.     
      17 1.732-6-4.044-7 0.     
      18 1.722-6 6.949-7 0.     
      19 2.896-6-4.399-7 0.     
      20 2.868-6 6.377-7 0.     
      21 3.846-6-3.025-7 0.     
      22 3.842-6 4.098-7 0.     
      23 4.301-6 0.      0.     
      24 4.235-6 0.      0.     
  6000     1    24                                                    24
       1 0.      4.696-6 0.     
       2 0.      4.626-6 0.     
       3-3.288-7 4.206-6 0.     
       4 4.439-7 4.200-6 0.     
       5-4.813-7 3.171-6 0.     
       6 6.940-7 3.142-6 0.     
       7-4.460-7 1.899-6 0.     
       8 7.585-7 1.889-6 0.     
       9-2.184-7 8.160-7 0.     
      10 6.408-7 7.624-7 0.     
      11 1.780-7 1.780-7 0.     
      12 3.163-7 2.564-7 0.     
      13 2.564-7 3.163-7 0.     
      14 8.160-7-2.184-7 0.     
      15 2.228-7 2.228-7 0.     
      16 7.624-7 6.408-7 0.     
      17 1.899-6-4.460-7 0.     
      18 1.889-6 7.585-7 0.     
      19 3.171-6-4.813-7 0.     
      20 3.142-6 6.940-7 0.     
      21 4.206-6-3.288-7 0.     
      22 4.200-6 4.439-7 0.     
      23 4.696-6 0.      0.     
      24 4.626-6 0.      0.     
  6000     1    25                                                    24
       1 0.      5.027-6 0.     
       2 0.      4.954-6 0.     
       3-3.509-7 4.507-6 0.     
       4 4.722-7 4.501-6 0.     
       5-5.160-7 3.403-6 0.     
       6 7.408-7 3.372-6 0.     
       7-4.816-7 2.040-6 0.     
       8 8.117-7 2.029-6 0.     
       9-2.395-7 8.748-7 0.     
      10 6.863-7 8.173-7 0.     
      11 1.859-7 1.859-7 0.     
      12 3.364-7 2.713-7 0.     
      13 2.713-7 3.364-7 0.     
      14 8.748-7-2.395-7 0.     
      15 2.346-7 2.346-7 0.     
      16 8.173-7 6.863-7 0.     
      17 2.040-6-4.816-7 0.     
      18 2.029-6 8.117-7 0.     
      19 3.403-6-5.160-7 0.     
      20 3.372-6 7.408-7 0.     
      21 4.507-6-3.509-7 0.     
      22 4.501-6 4.722-7 0.     
      23 5.027-6 0.      0.     
      24 4.954-6 0.      0.     
  6000     1    26                                                    24
       1 0.      5.270-6 0.     
       2 0.      5.193-6 0.     
       3-3.681-7 4.724-6 0.     
       4 4.960-7 4.718-6 0.     
       5-5.408-7 3.566-6 0.     
       6 7.778-7 3.533-6 0.     
       7-5.035-7 2.136-6 0.     
       8 8.515-7 2.125-6 0.     
       9-2.490-7 9.167-7 0.     
      10 7.195-7 8.564-7 0.     
      11 1.963-7 1.963-7 0.     
      12 3.536-7 2.856-7 0.     
      13 2.856-7 3.536-7 0.     
      14 9.167-7-2.490-7 0.     
      15 2.473-7 2.473-7 0.     
      16 8.564-7 7.195-7 0.     
      17 2.136-6-5.035-7 0.     
      18 2.125-6 8.515-7 0.     
      19 3.566-6-5.408-7 0.     
      20 3.533-6 7.778-7 0.     
      21 4.724-6-3.681-7 0.     
      22 4.718-6 4.960-7 0.     
      23 5.270-6 0.      0.     
      24 5.193-6 0.      0.     
  6000     1    27                                                    24
       1 0.      5.377-6 0.     
       2 0.      5.298-6 0.     
       3-3.759-7 4.819-6 0.     
       4 5.066-7 4.812-6 0.     
       5-5.515-7 3.636-6 0.     
       6 7.935-7 3.602-6 0.     
       7-5.131-7 2.178-6 0.     
       8 8.686-7 2.167-6 0.     
       9-2.532-7 9.348-7 0.     
      10 7.340-7 8.735-7 0.     
      11 2.014-7 2.014-7 0.     
      12 3.610-7 2.919-7 0.     
      13 2.919-7 3.610-7 0.     
      14 9.348-7-2.532-7 0.     
      15 2.530-7 2.530-7 0.     
      16 8.735-7 7.340-7 0.     
      17 2.178-6-5.131-7 0.     
      18 2.167-6 8.686-7 0.     
      19 3.636-6-5.515-7 0.     
      20 3.602-6 7.935-7 0.     
      21 4.819-6-3.759-7 0.     
      22 4.812-6 5.066-7 0.     
      23 5.377-6 0.      0.     
      24 5.298-6 0.      0.     
  6000     1    28                                                    24
       1 0.      5.400-6 0.     
       2 0.      5.318-6 0.     
       3-3.785-7 4.834-6 0.     
       4 5.115-7 4.828-6 0.     
       5-5.530-7 3.644-6 0.     
       6 7.986-7 3.609-6 0.     
       7-5.115-7 2.181-6 0.     
       8 8.722-7 2.169-6 0.     
       9-2.491-7 9.375-7 0.     
      10 7.367-7 8.761-7 0.     
      11 2.067-7 2.067-7 0.     
      12 3.644-7 2.960-7 0.     
      13 2.960-7 3.644-7 0.     
      14 9.375-7-2.491-7 0.     
      15 2.578-7 2.578-7 0.     
      16 8.761-7 7.367-7 0.     
      17 2.181-6-5.115-7 0.     
      18 2.169-6 8.722-7 0.     
      19 3.644-6-5.530-7 0.     
      20 3.609-6 7.986-7 0.     
      21 4.834-6-3.785-7 0.     
      22 4.828-6 5.115-7 0.     
      23 5.400-6 0.      0.     
      24 5.318-6 0.      0.     
  6000     1    29                                                    24
       1 0.      5.424-6 0.     
       2 0.      5.339-6 0.     
       3-3.818-7 4.849-6 0.     
       4 5.176-7 4.843-6 0.     
       5-5.544-7 3.649-6 0.     
       6 8.048-7 3.614-6 0.     
       7-5.085-7 2.182-6 0.     
       8 8.763-7 2.169-6 0.     
       9-2.431-7 9.397-7 0.     
      10 7.395-7 8.782-7 0.     
      11 2.135-7 2.135-7 0.     
      12 3.686-7 3.013-7 0.     
      13 3.013-7 3.686-7 0.     
      14 9.397-7-2.431-7 0.     
      15 2.638-7 2.638-7 0.     
      16 8.782-7 7.395-7 0.     
      17 2.182-6-5.085-7 0.     
      18 2.169-6 8.763-7 0.     
      19 3.649-6-5.544-7 0.     
      20 3.614-6 8.048-7 0.     
      21 4.849-6-3.818-7 0.     
      22 4.843-6 5.176-7 0.     
      23 5.424-6 0.      0.     
      24 5.339-6 0.      0.     
  6000     1    30                                                    24
       1 0.      5.527-6 0.     
       2 0.      5.440-6 0.     
       3-3.893-7 4.939-6 0.     
       4 5.277-7 4.934-6 0.     
       5-5.647-7 3.717-6 0.     
       6 8.196-7 3.682-6 0.     
       7-5.181-7 2.223-6 0.     
       8 8.925-7 2.210-6 0.     
       9-2.477-7 9.575-7 0.     
      10 7.534-7 8.948-7 0.     
      11 2.181-7 2.181-7 0.     
      12 3.754-7 3.071-7 0.     
      13 3.071-7 3.754-7 0.     
      14 9.575-7-2.477-7 0.     
      15 2.691-7 2.691-7 0.     
      16 8.948-7 7.534-7 0.     
      17 2.223-6-5.181-7 0.     
      18 2.210-6 8.925-7 0.     
      19 3.717-6-5.647-7 0.     
      20 3.682-6 8.196-7 0.     
      21 4.939-6-3.893-7 0.     
      22 4.934-6 5.277-7 0.     
      23 5.527-6 0.      0.     
      24 5.440-6 0.      0.     
  6000     1    31                                                    24
       1 0.      5.749-6 0.     
       2 0.      5.659-6 0.     
       3-4.050-7 5.138-6 0.     
       4 5.492-7 5.132-6 0.     
       5-5.873-7 3.866-6 0.     
       6 8.530-7 3.829-6 0.     
       7-5.384-7 2.312-6 0.     
       8 9.287-7 2.298-6 0.     
       9-2.568-7 9.958-7 0.     
      10 7.838-7 9.306-7 0.     
      11 2.273-7 2.273-7 0.     
      12 3.909-7 3.199-7 0.     
      13 3.199-7 3.909-7 0.     
      14 9.958-7-2.568-7 0.     
      15 2.804-7 2.804-7 0.     
      16 9.306-7 7.838-7 0.     
      17 2.312-6-5.384-7 0.     
      18 2.298-6 9.287-7 0.     
      19 3.866-6-5.873-7 0.     
      20 3.829-6 8.530-7 0.     
      21 5.138-6-4.050-7 0.     
      22 5.132-6 5.492-7 0.     
      23 5.749-6 0.      0.     
      24 5.659-6 0.      0.     
  6000     1    32                                                    24
       1 0.      6.096-6 0.     
       2 0.      6.002-6 0.     
       3-4.284-7 5.453-6 0.     
       4 5.799-7 5.446-6 0.     
       5-6.236-7 4.106-6 0.     
       6 9.032-7 4.068-6 0.     
       7-5.743-7 2.457-6 0.     
       8 9.848-7 2.443-6 0.     
       9-2.768-7 1.057-6 0.     
      10 8.313-7 9.877-7 0.     
      11 2.370-7 2.370-7 0.     
      12 4.129-7 3.366-7 0.     
      13 3.366-7 4.129-7 0.     
      14 1.057-6-2.768-7 0.     
      15 2.940-7 2.940-7 0.     
      16 9.877-7 8.313-7 0.     
      17 2.457-6-5.743-7 0.     
      18 2.443-6 9.848-7 0.     
      19 4.106-6-6.236-7 0.     
      20 4.068-6 9.032-7 0.     
      21 5.453-6-4.284-7 0.     
      22 5.446-6 5.799-7 0.     
      23 6.096-6 0.      0.     
      24 6.002-6 0.      0.     
  6000     1    33                                                    24
       1 0.      6.489-6 0.     
       2 0.      6.392-6 0.     
       3-4.541-7 5.811-6 0.     
       4 6.129-7 5.804-6 0.     
       5-6.650-7 4.383-6 0.     
       6 9.584-7 4.342-6 0.     
       7-6.170-7 2.625-6 0.     
       8 1.048-6 2.611-6 0.     
       9-3.027-7 1.127-6 0.     
      10 8.855-7 1.054-6 0.     
      11 2.457-7 2.457-7 0.     
      12 4.366-7 3.539-7 0.     
      13 3.539-7 4.366-7 0.     
      14 1.127-6-3.027-7 0.     
      15 3.075-7 3.075-7 0.     
      16 1.054-6 8.855-7 0.     
      17 2.625-6-6.170-7 0.     
      18 2.611-6 1.048-6 0.     
      19 4.383-6-6.650-7 0.     
      20 4.342-6 9.584-7 0.     
      21 5.811-6-4.541-7 0.     
      22 5.804-6 6.129-7 0.     
      23 6.489-6 0.      0.     
      24 6.392-6 0.      0.     
  6000     1    34                                                    24
       1 0.      6.842-6 0.     
       2 0.      6.741-6 0.     
       3-4.785-7 6.131-6 0.     
       4 6.453-7 6.122-6 0.     
       5-7.017-7 4.625-6 0.     
       6 1.011-6 4.582-6 0.     
       7-6.518-7 2.770-6 0.     
       8 1.105-6 2.755-6 0.     
       9-3.208-7 1.189-6 0.     
      10 9.339-7 1.111-6 0.     
      11 2.570-7 2.570-7 0.     
      12 4.599-7 3.721-7 0.     
      13 3.721-7 4.599-7 0.     
      14 1.189-6-3.208-7 0.     
      15 3.227-7 3.227-7 0.     
      16 1.111-6 9.339-7 0.     
      17 2.770-6-6.518-7 0.     
      18 2.755-6 1.105-6 0.     
      19 4.625-6-7.017-7 0.     
      20 4.582-6 1.011-6 0.     
      21 6.131-6-4.785-7 0.     
      22 6.122-6 6.453-7 0.     
      23 6.842-6 0.      0.     
      24 6.741-6 0.      0.     
  6000     1    35                                                    24
       1 0.      7.066-6 0.     
       2 0.      6.963-6 0.     
       3-4.938-7 6.333-6 0.     
       4 6.655-7 6.324-6 0.     
       5-7.249-7 4.779-6 0.     
       6 1.043-6 4.735-6 0.     
       7-6.747-7 2.864-6 0.     
       8 1.141-6 2.848-6 0.     
       9-3.333-7 1.229-6 0.     
      10 9.646-7 1.148-6 0.     
      11 2.640-7 2.640-7 0.     
      12 4.742-7 3.833-7 0.     
      13 3.833-7 4.742-7 0.     
      14 1.229-6-3.333-7 0.     
      15 3.320-7 3.320-7 0.     
      16 1.148-6 9.646-7 0.     
      17 2.864-6-6.747-7 0.     
      18 2.848-6 1.141-6 0.     
      19 4.779-6-7.249-7 0.     
      20 4.735-6 1.043-6 0.     
      21 6.333-6-4.938-7 0.     
      22 6.324-6 6.655-7 0.     
      23 7.066-6 0.      0.     
      24 6.963-6 0.      0.     
  6000     1    36                                                    24
       1 0.      7.176-6 0.     
       2 0.      7.070-6 0.     
       3-5.021-7 6.429-6 0.     
       4 6.770-7 6.421-6 0.     
       5-7.358-7 4.850-6 0.     
       6 1.059-6 4.805-6 0.     
       7-6.837-7 2.906-6 0.     
       8 1.159-6 2.890-6 0.     
       9-3.365-7 1.247-6 0.     
      10 9.795-7 1.166-6 0.     
      11 2.700-7 2.700-7 0.     
      12 4.822-7 3.904-7 0.     
      13 3.904-7 4.822-7 0.     
      14 1.247-6-3.365-7 0.     
      15 3.387-7 3.387-7 0.     
      16 1.166-6 9.795-7 0.     
      17 2.906-6-6.837-7 0.     
      18 2.890-6 1.159-6 0.     
      19 4.850-6-7.358-7 0.     
      20 4.805-6 1.059-6 0.     
      21 6.429-6-5.021-7 0.     
      22 6.421-6 6.770-7 0.     
      23 7.176-6 0.      0.     
      24 7.070-6 0.      0.     
  6000     1    37                                                    24
       1 0.      7.202-6 0.     
       2 0.      7.093-6 0.     
       3-5.055-7 6.446-6 0.     
       4 6.836-7 6.438-6 0.     
       5-7.373-7 4.856-6 0.     
       6 1.066-6 4.811-6 0.     
       7-6.806-7 2.906-6 0.     
       8 1.164-6 2.890-6 0.     
       9-3.299-7 1.250-6 0.     
      10 9.825-7 1.168-6 0.     
      11 2.774-7 2.774-7 0.     
      12 4.869-7 3.961-7 0.     
      13 3.961-7 4.869-7 0.     
      14 1.250-6-3.299-7 0.     
      15 3.453-7 3.453-7 0.     
      16 1.168-6 9.825-7 0.     
      17 2.906-6-6.806-7 0.     
      18 2.890-6 1.164-6 0.     
      19 4.856-6-7.373-7 0.     
      20 4.811-6 1.066-6 0.     
      21 6.446-6-5.055-7 0.     
      22 6.438-6 6.836-7 0.     
      23 7.202-6 0.      0.     
      24 7.093-6 0.      0.     
  6000     1    38                                                    24
       1 0.      7.221-6 0.     
       2 0.      7.110-6 0.     
       3-5.074-7 6.459-6 0.     
       4 6.868-7 6.451-6 0.     
       5-7.386-7 4.864-6 0.     
       6 1.069-6 4.818-6 0.     
       7-6.803-7 2.910-6 0.     
       8 1.166-6 2.894-6 0.     
       9-3.283-7 1.252-6 0.     
      10 9.848-7 1.170-6 0.     
      11 2.808-7 2.808-7 0.     
      12 4.889-7 3.986-7 0.     
      13 3.986-7 4.889-7 0.     
      14 1.252-6-3.283-7 0.     
      15 3.482-7 3.482-7 0.     
      16 1.170-6 9.848-7 0.     
      17 2.910-6-6.803-7 0.     
      18 2.894-6 1.166-6 0.     
      19 4.864-6-7.386-7 0.     
      20 4.818-6 1.069-6 0.     
      21 6.459-6-5.074-7 0.     
      22 6.451-6 6.868-7 0.     
      23 7.221-6 0.      0.     
      24 7.110-6 0.      0.     
  6000     1    39                                                    24
       1 0.      7.326-6 0.     
       2 0.      7.212-6 0.     
       3-5.156-7 6.549-6 0.     
       4 6.987-7 6.541-6 0.     
       5-7.488-7 4.929-6 0.     
       6 1.086-6 4.882-6 0.     
       7-6.876-7 2.948-6 0.     
       8 1.183-6 2.931-6 0.     
       9-3.292-7 1.269-6 0.     
      10 9.988-7 1.186-6 0.     
      11 2.880-7 2.880-7 0.     
      12 4.974-7 4.064-7 0.     
      13 4.064-7 4.974-7 0.     
      14 1.269-6-3.292-7 0.     
      15 3.558-7 3.558-7 0.     
      16 1.186-6 9.988-7 0.     
      17 2.948-6-6.876-7 0.     
      18 2.931-6 1.183-6 0.     
      19 4.929-6-7.488-7 0.     
      20 4.882-6 1.086-6 0.     
      21 6.549-6-5.156-7 0.     
      22 6.541-6 6.987-7 0.     
      23 7.326-6 0.      0.     
      24 7.212-6 0.      0.     
  6000     1    40                                                    24
       1 0.      7.562-6 0.     
       2 0.      7.444-6 0.     
       3-5.322-7 6.761-6 0.     
       4 7.214-7 6.752-6 0.     
       5-7.729-7 5.088-6 0.     
       6 1.122-6 5.040-6 0.     
       7-7.096-7 3.043-6 0.     
       8 1.222-6 3.026-6 0.     
       9-3.396-7 1.310-6 0.     
      10 1.031-6 1.225-6 0.     
      11 2.973-7 2.973-7 0.     
      12 5.136-7 4.197-7 0.     
      13 4.197-7 5.136-7 0.     
      14 1.310-6-3.396-7 0.     
      15 3.674-7 3.674-7 0.     
      16 1.225-6 1.031-6 0.     
      17 3.043-6-7.096-7 0.     
      18 3.026-6 1.222-6 0.     
      19 5.088-6-7.729-7 0.     
      20 5.040-6 1.122-6 0.     
      21 6.761-6-5.322-7 0.     
      22 6.752-6 7.214-7 0.     
      23 7.562-6 0.      0.     
      24 7.444-6 0.      0.     
  6000     1    41                                                    24
       1 0.      7.889-6 0.     
       2 0.      7.768-6 0.     
       3-5.538-7 7.058-6 0.     
       4 7.488-7 7.050-6 0.     
       5-8.074-7 5.318-6 0.     
       6 1.167-6 5.268-6 0.     
       7-7.455-7 3.183-6 0.     
       8 1.274-6 3.165-6 0.     
       9-3.615-7 1.369-6 0.     
      10 1.076-6 1.279-6 0.     
      11 3.043-7 3.043-7 0.     
      12 5.331-7 4.338-7 0.     
      13 4.338-7 5.331-7 0.     
      14 1.369-6-3.615-7 0.     
      15 3.784-7 3.784-7 0.     
      16 1.279-6 1.076-6 0.     
      17 3.183-6-7.455-7 0.     
      18 3.165-6 1.274-6 0.     
      19 5.318-6-8.074-7 0.     
      20 5.268-6 1.167-6 0.     
      21 7.058-6-5.538-7 0.     
      22 7.050-6 7.488-7 0.     
      23 7.889-6 0.      0.     
      24 7.768-6 0.      0.     
  6000     1    42                                                    24
       1 0.      8.286-6 0.     
       2 0.      8.161-6 0.     
       3-5.808-7 7.419-6 0.     
       4 7.846-7 7.409-6 0.     
       5-8.487-7 5.592-6 0.     
       6 1.225-6 5.540-6 0.     
       7-7.854-7 3.348-6 0.     
       8 1.338-6 3.330-6 0.     
       9-3.831-7 1.439-6 0.     
      10 1.131-6 1.345-6 0.     
      11 3.162-7 3.162-7 0.     
      12 5.588-7 4.537-7 0.     
      13 4.537-7 5.588-7 0.     
      14 1.439-6-3.831-7 0.     
      15 3.948-7 3.948-7 0.     
      16 1.345-6 1.131-6 0.     
      17 3.348-6-7.854-7 0.     
      18 3.330-6 1.338-6 0.     
      19 5.592-6-8.487-7 0.     
      20 5.540-6 1.225-6 0.     
      21 7.419-6-5.808-7 0.     
      22 7.409-6 7.846-7 0.     
      23 8.286-6 0.      0.     
      24 8.161-6 0.      0.     
  6000     1    43                                                    24
       1 0.      8.637-6 0.     
       2 0.      8.509-6 0.     
       3-6.043-7 7.738-6 0.     
       4 8.153-7 7.727-6 0.     
       5-8.855-7 5.837-6 0.     
       6 1.276-6 5.782-6 0.     
       7-8.220-7 3.496-6 0.     
       8 1.395-6 3.477-6 0.     
       9-4.039-7 1.501-6 0.     
      10 1.179-6 1.403-6 0.     
      11 3.256-7 3.256-7 0.     
      12 5.809-7 4.704-7 0.     
      13 4.704-7 5.809-7 0.     
      14 1.501-6-4.039-7 0.     
      15 4.082-7 4.082-7 0.     
      16 1.403-6 1.179-6 0.     
      17 3.496-6-8.220-7 0.     
      18 3.477-6 1.395-6 0.     
      19 5.837-6-8.855-7 0.     
      20 5.782-6 1.276-6 0.     
      21 7.738-6-6.043-7 0.     
      22 7.727-6 8.153-7 0.     
      23 8.637-6 0.      0.     
      24 8.509-6 0.      0.     
  6000     1    44                                                    24
       1 0.      8.873-6 0.     
       2 0.      8.741-6 0.     
       3-6.202-7 7.950-6 0.     
       4 8.361-7 7.940-6 0.     
       5-9.100-7 5.999-6 0.     
       6 1.309-6 5.944-6 0.     
       7-8.464-7 3.594-6 0.     
       8 1.433-6 3.575-6 0.     
       9-4.176-7 1.543-6 0.     
      10 1.211-6 1.441-6 0.     
      11 3.325-7 3.325-7 0.     
      12 5.956-7 4.818-7 0.     
      13 4.818-7 5.956-7 0.     
      14 1.543-6-4.176-7 0.     
      15 4.176-7 4.176-7 0.     
      16 1.441-6 1.211-6 0.     
      17 3.594-6-8.464-7 0.     
      18 3.575-6 1.433-6 0.     
      19 5.999-6-9.100-7 0.     
      20 5.944-6 1.309-6 0.     
      21 7.950-6-6.202-7 0.     
      22 7.940-6 8.361-7 0.     
      23 8.873-6 0.      0.     
      24 8.741-6 0.      0.     
  6000     1    45                                                    24
       1 0.      8.978-6 0.     
       2 0.      8.844-6 0.     
       3-6.287-7 8.041-6 0.     
       4 8.489-7 8.030-6 0.     
       5-9.200-7 6.063-6 0.     
       6 1.327-6 6.006-6 0.     
       7-8.525-7 3.630-6 0.     
       8 1.451-6 3.610-6 0.     
       9-4.169-7 1.560-6 0.     
      10 1.225-6 1.457-6 0.     
      11 3.409-7 3.409-7 0.     
      12 6.049-7 4.906-7 0.     
      13 4.906-7 6.049-7 0.     
      14 1.560-6-4.169-7 0.     
      15 4.264-7 4.264-7 0.     
      16 1.457-6 1.225-6 0.     
      17 3.630-6-8.525-7 0.     
      18 3.610-6 1.451-6 0.     
      19 6.063-6-9.200-7 0.     
      20 6.006-6 1.327-6 0.     
      21 8.041-6-6.287-7 0.     
      22 8.030-6 8.489-7 0.     
      23 8.978-6 0.      0.     
      24 8.844-6 0.      0.     
  6000     1    46                                                    24
       1 0.      9.001-6 0.     
       2 0.      8.865-6 0.     
       3-6.312-7 8.057-6 0.     
       4 8.530-7 8.046-6 0.     
       5-9.217-7 6.072-6 0.     
       6 1.331-6 6.015-6 0.     
       7-8.523-7 3.635-6 0.     
       8 1.454-6 3.615-6 0.     
       9-4.147-7 1.562-6 0.     
      10 1.228-6 1.460-6 0.     
      11 3.450-7 3.450-7 0.     
      12 6.074-7 4.937-7 0.     
      13 4.937-7 6.074-7 0.     
      14 1.562-6-4.147-7 0.     
      15 4.300-7 4.300-7 0.     
      16 1.460-6 1.228-6 0.     
      17 3.635-6-8.523-7 0.     
      18 3.615-6 1.454-6 0.     
      19 6.072-6-9.217-7 0.     
      20 6.015-6 1.331-6 0.     
      21 8.057-6-6.312-7 0.     
      22 8.046-6 8.530-7 0.     
      23 9.001-6 0.      0.     
      24 8.865-6 0.      0.     
  6000     1    47                                                    24
       1 0.      9.024-6 0.     
       2 0.      8.885-6 0.     
       3-6.340-7 8.072-6 0.     
       4 8.579-7 8.062-6 0.     
       5-9.230-7 6.079-6 0.     
       6 1.336-6 6.022-6 0.     
       7-8.506-7 3.638-6 0.     
       8 1.458-6 3.617-6 0.     
       9-4.107-7 1.565-6 0.     
      10 1.231-6 1.463-6 0.     
      11 3.503-7 3.503-7 0.     
      12 6.108-7 4.978-7 0.     
      13 4.978-7 6.108-7 0.     
      14 1.565-6-4.107-7 0.     
      15 4.347-7 4.347-7 0.     
      16 1.463-6 1.231-6 0.     
      17 3.638-6-8.506-7 0.     
      18 3.617-6 1.458-6 0.     
      19 6.079-6-9.230-7 0.     
      20 6.022-6 1.336-6 0.     
      21 8.072-6-6.340-7 0.     
      22 8.062-6 8.579-7 0.     
      23 9.024-6 0.      0.     
      24 8.885-6 0.      0.     
  6000     1    48                                                    24
       1 0.      9.125-6 0.     
       2 0.      8.984-6 0.     
       3-6.421-7 8.159-6 0.     
       4 8.701-7 8.149-6 0.     
       5-9.330-7 6.141-6 0.     
       6 1.353-6 6.083-6 0.     
       7-8.568-7 3.673-6 0.     
       8 1.474-6 3.652-6 0.     
       9-4.105-7 1.581-6 0.     
      10 1.244-6 1.478-6 0.     
      11 3.580-7 3.580-7 0.     
      12 6.195-7 5.060-7 0.     
      13 5.060-7 6.195-7 0.     
      14 1.581-6-4.105-7 0.     
      15 4.428-7 4.428-7 0.     
      16 1.478-6 1.244-6 0.     
      17 3.673-6-8.568-7 0.     
      18 3.652-6 1.474-6 0.     
      19 6.141-6-9.330-7 0.     
      20 6.083-6 1.353-6 0.     
      21 8.159-6-6.421-7 0.     
      22 8.149-6 8.701-7 0.     
      23 9.125-6 0.      0.     
      24 8.984-6 0.      0.     
  6000     1    49                                                    24
       1 0.      9.356-6 0.     
       2 0.      9.211-6 0.     
       3-6.576-7 8.367-6 0.     
       4 8.902-7 8.357-6 0.     
       5-9.569-7 6.301-6 0.     
       6 1.386-6 6.242-6 0.     
       7-8.810-7 3.770-6 0.     
       8 1.511-6 3.749-6 0.     
       9-4.247-7 1.622-6 0.     
      10 1.276-6 1.516-6 0.     
      11 3.643-7 3.643-7 0.     
      12 6.337-7 5.168-7 0.     
      13 5.168-7 6.337-7 0.     
      14 1.622-6-4.247-7 0.     
      15 4.516-7 4.516-7 0.     
      16 1.516-6 1.276-6 0.     
      17 3.770-6-8.810-7 0.     
      18 3.749-6 1.511-6 0.     
      19 6.301-6-9.569-7 0.     
      20 6.242-6 1.386-6 0.     
      21 8.367-6-6.576-7 0.     
      22 8.357-6 8.902-7 0.     
      23 9.356-6 0.      0.     
      24 9.211-6 0.      0.     
  6000     1    50                                                    24
       1 0.      9.706-6 0.     
       2 0.      9.558-6 0.     
       3-6.815-7 8.685-6 0.     
       4 9.218-7 8.674-6 0.     
       5-9.934-7 6.543-6 0.     
       6 1.437-6 6.481-6 0.     
       7-9.165-7 3.915-6 0.     
       8 1.568-6 3.894-6 0.     
       9-4.436-7 1.684-6 0.     
      10 1.324-6 1.574-6 0.     
      11 3.750-7 3.750-7 0.     
      12 6.564-7 5.344-7 0.     
      13 5.344-7 6.564-7 0.     
      14 1.684-6-4.436-7 0.     
      15 4.662-7 4.662-7 0.     
      16 1.574-6 1.324-6 0.     
      17 3.915-6-9.165-7 0.     
      18 3.894-6 1.568-6 0.     
      19 6.543-6-9.934-7 0.     
      20 6.481-6 1.437-6 0.     
      21 8.685-6-6.815-7 0.     
      22 8.674-6 9.218-7 0.     
      23 9.706-6 0.      0.     
      24 9.558-6 0.      0.     
  6000     1    51                                                    24
       1 0.      1.008-5 0.     
       2 0.      9.929-6 0.     
       3-7.066-7 9.025-6 0.     
       4 9.547-7 9.013-6 0.     
       5-1.033-6 6.803-6 0.     
       6 1.491-6 6.739-6 0.     
       7-9.553-7 4.073-6 0.     
       8 1.629-6 4.050-6 0.     
       9-4.655-7 1.750-6 0.     
      10 1.375-6 1.635-6 0.     
      11 3.852-7 3.852-7 0.     
      12 6.800-7 5.523-7 0.     
      13 5.523-7 6.800-7 0.     
      14 1.750-6-4.655-7 0.     
      15 4.807-7 4.807-7 0.     
      16 1.635-6 1.375-6 0.     
      17 4.073-6-9.553-7 0.     
      18 4.050-6 1.629-6 0.     
      19 6.803-6-1.033-6 0.     
      20 6.739-6 1.491-6 0.     
      21 9.025-6-7.066-7 0.     
      22 9.013-6 9.547-7 0.     
      23 1.008-5 0.      0.     
      24 9.929-6 0.      0.     
  6000     1    52                                                    24
       1 0.      1.043-5 0.     
       2 0.      1.028-5 0.     
       3-7.297-7 9.345-6 0.     
       4 9.844-7 9.332-6 0.     
       5-1.069-6 7.049-6 0.     
       6 1.540-6 6.984-6 0.     
       7-9.932-7 4.223-6 0.     
       8 1.685-6 4.200-6 0.     
       9-4.884-7 1.813-6 0.     
      10 1.424-6 1.694-6 0.     
      11 3.932-7 3.932-7 0.     
      12 7.013-7 5.679-7 0.     
      13 5.679-7 7.013-7 0.     
      14 1.813-6-4.884-7 0.     
      15 4.929-7 4.929-7 0.     
      16 1.694-6 1.424-6 0.     
      17 4.223-6-9.932-7 0.     
      18 4.200-6 1.685-6 0.     
      19 7.049-6-1.069-6 0.     
      20 6.984-6 1.540-6 0.     
      21 9.345-6-7.297-7 0.     
      22 9.332-6 9.844-7 0.     
      23 1.043-5 0.      0.     
      24 1.028-5 0.      0.     
  6000     1    53                                                    24
       1 0.      1.067-5 0.     
       2 0.      1.051-5 0.     
       3-7.470-7 9.560-6 0.     
       4 1.008-6 9.548-6 0.     
       5-1.094-6 7.210-6 0.     
       6 1.577-6 7.143-6 0.     
       7-1.015-6 4.318-6 0.     
       8 1.724-6 4.295-6 0.     
       9-4.980-7 1.855-6 0.     
      10 1.457-6 1.733-6 0.     
      11 4.032-7 4.032-7 0.     
      12 7.182-7 5.818-7 0.     
      13 5.818-7 7.182-7 0.     
      14 1.855-6-4.980-7 0.     
      15 5.051-7 5.051-7 0.     
      16 1.733-6 1.457-6 0.     
      17 4.318-6-1.015-6 0.     
      18 4.295-6 1.724-6 0.     
      19 7.210-6-1.094-6 0.     
      20 7.143-6 1.577-6 0.     
      21 9.560-6-7.470-7 0.     
      22 9.548-6 1.008-6 0.     
      23 1.067-5 0.      0.     
      24 1.051-5 0.      0.     
  6000     1    54                                                    24
       1 0.      1.078-5 0.     
       2 0.      1.062-5 0.     
       3-7.549-7 9.653-6 0.     
       4 1.019-6 9.641-6 0.     
       5-1.105-6 7.279-6 0.     
       6 1.593-6 7.211-6 0.     
       7-1.024-6 4.359-6 0.     
       8 1.741-6 4.335-6 0.     
       9-5.009-7 1.873-6 0.     
      10 1.471-6 1.750-6 0.     
      11 4.092-7 4.092-7 0.     
      12 7.261-7 5.889-7 0.     
      13 5.889-7 7.261-7 0.     
      14 1.873-6-5.009-7 0.     
      15 5.118-7 5.118-7 0.     
      16 1.750-6 1.471-6 0.     
      17 4.359-6-1.024-6 0.     
      18 4.335-6 1.741-6 0.     
      19 7.279-6-1.105-6 0.     
      20 7.211-6 1.593-6 0.     
      21 9.653-6-7.549-7 0.     
      22 9.641-6 1.019-6 0.     
      23 1.078-5 0.      0.     
      24 1.062-5 0.      0.     
  6000     1    55                                                    24
       1 0.      1.080-5 0.     
       2 0.      1.064-5 0.     
       3-7.574-7 9.668-6 0.     
       4 1.023-6 9.655-6 0.     
       5-1.106-6 7.287-6 0.     
       6 1.597-6 7.218-6 0.     
       7-1.023-6 4.362-6 0.     
       8 1.744-6 4.338-6 0.     
       9-4.983-7 1.875-6 0.     
      10 1.473-6 1.752-6 0.     
      11 4.135-7 4.135-7 0.     
      12 7.287-7 5.921-7 0.     
      13 5.921-7 7.287-7 0.     
      14 1.875-6-4.983-7 0.     
      15 5.156-7 5.156-7 0.     
      16 1.752-6 1.473-6 0.     
      17 4.362-6-1.023-6 0.     
      18 4.338-6 1.744-6 0.     
      19 7.287-6-1.106-6 0.     
      20 7.218-6 1.597-6 0.     
      21 9.668-6-7.574-7 0.     
      22 9.655-6 1.023-6 0.     
      23 1.080-5 0.      0.     
      24 1.064-5 0.      0.     
  6000     1    56                                                    24
       1 0.      1.083-5 0.     
       2 0.      1.066-5 0.     
       3-7.607-7 9.683-6 0.     
       4 1.030-6 9.671-6 0.     
       5-1.107-6 7.292-6 0.     
       6 1.604-6 7.223-6 0.     
       7-1.020-6 4.363-6 0.     
       8 1.749-6 4.338-6 0.     
       9-4.914-7 1.877-6 0.     
      10 1.476-6 1.754-6 0.     
      11 4.210-7 4.210-7 0.     
      12 7.334-7 5.978-7 0.     
      13 5.978-7 7.334-7 0.     
      14 1.877-6-4.914-7 0.     
      15 5.223-7 5.223-7 0.     
      16 1.754-6 1.476-6 0.     
      17 4.363-6-1.020-6 0.     
      18 4.338-6 1.749-6 0.     
      19 7.292-6-1.107-6 0.     
      20 7.223-6 1.604-6 0.     
      21 9.683-6-7.607-7 0.     
      22 9.671-6 1.030-6 0.     
      23 1.083-5 0.      0.     
      24 1.066-5 0.      0.     
  6000     1    57                                                    24
       1 0.      1.093-5 0.     
       2 0.      1.076-5 0.     
       3-7.683-7 9.776-6 0.     
       4 1.040-6 9.764-6 0.     
       5-1.118-6 7.361-6 0.     
       6 1.619-6 7.292-6 0.     
       7-1.029-6 4.404-6 0.     
       8 1.766-6 4.379-6 0.     
       9-4.956-7 1.895-6 0.     
      10 1.491-6 1.771-6 0.     
      11 4.260-7 4.260-7 0.     
      12 7.405-7 6.040-7 0.     
      13 6.040-7 7.405-7 0.     
      14 1.895-6-4.956-7 0.     
      15 5.279-7 5.279-7 0.     
      16 1.771-6 1.491-6 0.     
      17 4.404-6-1.029-6 0.     
      18 4.379-6 1.766-6 0.     
      19 7.361-6-1.118-6 0.     
      20 7.292-6 1.619-6 0.     
      21 9.776-6-7.683-7 0.     
      22 9.764-6 1.040-6 0.     
      23 1.093-5 0.      0.     
      24 1.076-5 0.      0.     
  6000     1    58                                                    24
       1 0.      1.115-5 0.     
       2 0.      1.098-5 0.     
       3-7.838-7 9.975-6 0.     
       4 1.061-6 9.963-6 0.     
       5-1.141-6 7.512-6 0.     
       6 1.652-6 7.441-6 0.     
       7-1.050-6 4.494-6 0.     
       8 1.802-6 4.469-6 0.     
       9-5.062-7 1.934-6 0.     
      10 1.521-6 1.807-6 0.     
      11 4.340-7 4.340-7 0.     
      12 7.554-7 6.160-7 0.     
      13 6.160-7 7.554-7 0.     
      14 1.934-6-5.062-7 0.     
      15 5.381-7 5.381-7 0.     
      16 1.807-6 1.521-6 0.     
      17 4.494-6-1.050-6 0.     
      18 4.469-6 1.802-6 0.     
      19 7.512-6-1.141-6 0.     
      20 7.441-6 1.652-6 0.     
      21 9.975-6-7.838-7 0.     
      22 9.963-6 1.061-6 0.     
      23 1.115-5 0.      0.     
      24 1.098-5 0.      0.     
  6000     1    59                                                    24
       1 0.      1.150-5 0.     
       2 0.      1.133-5 0.     
       3-8.077-7 1.029-5 0.     
       4 1.093-6 1.028-5 0.     
       5-1.177-6 7.753-6 0.     
       6 1.703-6 7.680-6 0.     
       7-1.085-6 4.639-6 0.     
       8 1.858-6 4.613-6 0.     
       9-5.251-7 1.996-6 0.     
      10 1.569-6 1.865-6 0.     
      11 4.448-7 4.448-7 0.     
      12 7.782-7 6.336-7 0.     
      13 6.336-7 7.782-7 0.     
      14 1.996-6-5.251-7 0.     
      15 5.528-7 5.528-7 0.     
      16 1.865-6 1.569-6 0.     
      17 4.639-6-1.085-6 0.     
      18 4.613-6 1.858-6 0.     
      19 7.753-6-1.177-6 0.     
      20 7.680-6 1.703-6 0.     
      21 1.029-5-8.077-7 0.     
      22 1.028-5 1.093-6 0.     
      23 1.150-5 0.      0.     
      24 1.133-5 0.      0.     
  6000     1    60                                                    24
       1 0.      1.190-5 0.     
       2 0.      1.172-5 0.     
       3-8.336-7 1.065-5 0.     
       4 1.126-6 1.064-5 0.     
       5-1.219-6 8.030-6 0.     
       6 1.758-6 7.955-6 0.     
       7-1.129-6 4.808-6 0.     
       8 1.921-6 4.782-6 0.     
       9-5.515-7 2.066-6 0.     
      10 1.623-6 1.930-6 0.     
      11 4.530-7 4.530-7 0.     
      12 8.015-7 6.505-7 0.     
      13 6.505-7 8.015-7 0.     
      14 2.066-6-5.515-7 0.     
      15 5.658-7 5.658-7 0.     
      16 1.930-6 1.623-6 0.     
      17 4.808-6-1.129-6 0.     
      18 4.782-6 1.921-6 0.     
      19 8.030-6-1.219-6 0.     
      20 7.955-6 1.758-6 0.     
      21 1.065-5-8.336-7 0.     
      22 1.064-5 1.126-6 0.     
      23 1.190-5 0.      0.     
      24 1.172-5 0.      0.     
  6000     1    61                                                    24
       1 0.      1.223-5 0.     
       2 0.      1.205-5 0.     
       3-8.564-7 1.095-5 0.     
       4 1.156-6 1.094-5 0.     
       5-1.253-6 8.259-6 0.     
       6 1.807-6 8.182-6 0.     
       7-1.162-6 4.946-6 0.     
       8 1.975-6 4.919-6 0.     
       9-5.689-7 2.125-6 0.     
      10 1.669-6 1.985-6 0.     
      11 4.638-7 4.638-7 0.     
      12 8.236-7 6.678-7 0.     
      13 6.678-7 8.236-7 0.     
      14 2.125-6-5.689-7 0.     
      15 5.803-7 5.803-7 0.     
      16 1.985-6 1.669-6 0.     
      17 4.946-6-1.162-6 0.     
      18 4.919-6 1.975-6 0.     
      19 8.259-6-1.253-6 0.     
      20 8.182-6 1.807-6 0.     
      21 1.095-5-8.564-7 0.     
      22 1.094-5 1.156-6 0.     
      23 1.223-5 0.      0.     
      24 1.205-5 0.      0.     
  6000     1    62                                                    24
       1 0.      1.247-5 0.     
       2 0.      1.228-5 0.     
       3-8.730-7 1.117-5 0.     
       4 1.178-6 1.115-5 0.     
       5-1.278-6 8.423-6 0.     
       6 1.843-6 8.345-6 0.     
       7-1.186-6 5.045-6 0.     
       8 2.014-6 5.017-6 0.     
       9-5.812-7 2.167-6 0.     
      10 1.702-6 2.024-6 0.     
      11 4.718-7 4.718-7 0.     
      12 8.393-7 6.802-7 0.     
      13 6.802-7 8.393-7 0.     
      14 2.167-6-5.812-7 0.     
      15 5.908-7 5.908-7 0.     
      16 2.024-6 1.702-6 0.     
      17 5.045-6-1.186-6 0.     
      18 5.017-6 2.014-6 0.     
      19 8.423-6-1.278-6 0.     
      20 8.345-6 1.843-6 0.     
      21 1.117-5-8.730-7 0.     
      22 1.115-5 1.178-6 0.     
      23 1.247-5 0.      0.     
      24 1.228-5 0.      0.     
  6000     1    63                                                    24
       1 0.      1.258-5 0.     
       2 0.      1.239-5 0.     
       3-8.806-7 1.126-5 0.     
       4 1.189-6 1.125-5 0.     
       5-1.289-6 8.494-6 0.     
       6 1.858-6 8.415-6 0.     
       7-1.195-6 5.087-6 0.     
       8 2.031-6 5.059-6 0.     
       9-5.853-7 2.185-6 0.     
      10 1.716-6 2.042-6 0.     
      11 4.771-7 4.771-7 0.     
      12 8.468-7 6.866-7 0.     
      13 6.866-7 8.468-7 0.     
      14 2.185-6-5.853-7 0.     
      15 5.967-7 5.967-7 0.     
      16 2.042-6 1.716-6 0.     
      17 5.087-6-1.195-6 0.     
      18 5.059-6 2.031-6 0.     
      19 8.494-6-1.289-6 0.     
      20 8.415-6 1.858-6 0.     
      21 1.126-5-8.806-7 0.     
      22 1.125-5 1.189-6 0.     
      23 1.258-5 0.      0.     
      24 1.239-5 0.      0.     
  6000     1    64                                                    24
       1 0.      1.260-5 0.     
       2 0.      1.241-5 0.     
       3-8.842-7 1.128-5 0.     
       4 1.195-6 1.127-5 0.     
       5-1.290-6 8.500-6 0.     
       6 1.865-6 8.420-6 0.     
       7-1.192-6 5.087-6 0.     
       8 2.036-6 5.059-6 0.     
       9-5.786-7 2.187-6 0.     
      10 1.719-6 2.044-6 0.     
      11 4.845-7 4.845-7 0.     
      12 8.515-7 6.924-7 0.     
      13 6.924-7 8.515-7 0.     
      14 2.187-6-5.786-7 0.     
      15 6.034-7 6.034-7 0.     
      16 2.044-6 1.719-6 0.     
      17 5.087-6-1.192-6 0.     
      18 5.059-6 2.036-6 0.     
      19 8.500-6-1.290-6 0.     
      20 8.420-6 1.865-6 0.     
      21 1.128-5-8.842-7 0.     
      22 1.127-5 1.195-6 0.     
      23 1.260-5 0.      0.     
      24 1.241-5 0.      0.     
  6000     1    65                                                    24
       1 0.      1.262-5 0.     
       2 0.      1.243-5 0.     
       3-8.865-7 1.129-5 0.     
       4 1.199-6 1.128-5 0.     
       5-1.292-6 8.507-6 0.     
       6 1.869-6 8.427-6 0.     
       7-1.191-6 5.091-6 0.     
       8 2.039-6 5.062-6 0.     
       9-5.761-7 2.190-6 0.     
      10 1.722-6 2.046-6 0.     
      11 4.886-7 4.886-7 0.     
      12 8.539-7 6.954-7 0.     
      13 6.954-7 8.539-7 0.     
      14 2.190-6-5.761-7 0.     
      15 6.069-7 6.069-7 0.     
      16 2.046-6 1.722-6 0.     
      17 5.091-6-1.191-6 0.     
      18 5.062-6 2.039-6 0.     
      19 8.507-6-1.292-6 0.     
      20 8.427-6 1.869-6 0.     
      21 1.129-5-8.865-7 0.     
      22 1.128-5 1.199-6 0.     
      23 1.262-5 0.      0.     
      24 1.243-5 0.      0.     
  6000     1    66                                                    24
       1 0.      1.273-5 0.     
       2 0.      1.253-5 0.     
       3-8.945-7 1.138-5 0.     
       4 1.211-6 1.137-5 0.     
       5-1.302-6 8.574-6 0.     
       6 1.885-6 8.493-6 0.     
       7-1.199-6 5.130-6 0.     
       8 2.056-6 5.101-6 0.     
       9-5.785-7 2.207-6 0.     
      10 1.736-6 2.063-6 0.     
      11 4.949-7 4.949-7 0.     
      12 8.619-7 7.027-7 0.     
      13 7.027-7 8.619-7 0.     
      14 2.207-6-5.786-7 0.     
      15 6.138-7 6.138-7 0.     
      16 2.063-6 1.736-6 0.     
      17 5.130-6-1.199-6 0.     
      18 5.101-6 2.056-6 0.     
      19 8.574-6-1.302-6 0.     
      20 8.493-6 1.885-6 0.     
      21 1.138-5-8.945-7 0.     
      22 1.137-5 1.211-6 0.     
      23 1.273-5 0.      0.     
      24 1.253-5 0.      0.     
  6000     1    67                                                    24
       1 0.      1.297-5 0.     
       2 0.      1.277-5 0.     
       3-9.114-7 1.160-5 0.     
       4 1.234-6 1.158-5 0.     
       5-1.326-6 8.734-6 0.     
       6 1.921-6 8.651-6 0.     
       7-1.221-6 5.225-6 0.     
       8 2.095-6 5.196-6 0.     
       9-5.882-7 2.248-6 0.     
      10 1.768-6 2.101-6 0.     
      11 5.047-7 5.047-7 0.     
      12 8.786-7 7.164-7 0.     
      13 7.164-7 8.786-7 0.     
      14 2.248-6-5.882-7 0.     
      15 6.258-7 6.258-7 0.     
      16 2.101-6 1.768-6 0.     
      17 5.225-6-1.221-6 0.     
      18 5.196-6 2.095-6 0.     
      19 8.734-6-1.326-6 0.     
      20 8.651-6 1.921-6 0.     
      21 1.160-5-9.114-7 0.     
      22 1.158-5 1.234-6 0.     
      23 1.297-5 0.      0.     
      24 1.277-5 0.      0.     
  6000     1    68                                                    24
       1 0.      1.329-5 0.     
       2 0.      1.309-5 0.     
       3-9.329-7 1.190-5 0.     
       4 1.261-6 1.188-5 0.     
       5-1.361-6 8.965-6 0.     
       6 1.967-6 8.880-6 0.     
       7-1.257-6 5.366-6 0.     
       8 2.147-6 5.336-6 0.     
       9-6.099-7 2.307-6 0.     
      10 1.814-6 2.156-6 0.     
      11 5.119-7 5.119-7 0.     
      12 8.982-7 7.307-7 0.     
      13 7.307-7 8.982-7 0.     
      14 2.307-6-6.099-7 0.     
      15 6.370-7 6.370-7 0.     
      16 2.156-6 1.814-6 0.     
      17 5.366-6-1.257-6 0.     
      18 5.336-6 2.147-6 0.     
      19 8.965-6-1.361-6 0.     
      20 8.880-6 1.967-6 0.     
      21 1.190-5-9.329-7 0.     
      22 1.188-5 1.261-6 0.     
      23 1.329-5 0.      0.     
      24 1.309-5 0.      0.     
  6000     1    69                                                    24
       1 0.      1.369-5 0.     
       2 0.      1.348-5 0.     
       3-9.596-7 1.226-5 0.     
       4 1.297-6 1.224-5 0.     
       5-1.402-6 9.239-6 0.     
       6 2.025-6 9.153-6 0.     
       7-1.298-6 5.531-6 0.     
       8 2.212-6 5.501-6 0.     
       9-6.326-7 2.377-6 0.     
      10 1.868-6 2.221-6 0.     
      11 5.230-7 5.230-7 0.     
      12 9.235-7 7.499-7 0.     
      13 7.500-7 9.235-7 0.     
      14 2.377-6-6.326-7 0.     
      15 6.527-7 6.527-7 0.     
      16 2.221-6 1.868-6 0.     
      17 5.531-6-1.298-6 0.     
      18 5.501-6 2.212-6 0.     
      19 9.239-6-1.402-6 0.     
      20 9.153-6 2.025-6 0.     
      21 1.226-5-9.596-7 0.     
      22 1.224-5 1.297-6 0.     
      23 1.369-5 0.      0.     
      24 1.348-5 0.      0.     
  6000     1    70                                                    24
       1 0.      1.404-5 0.     
       2 0.      1.383-5 0.     
       3-9.835-7 1.258-5 0.     
       4 1.328-6 1.256-5 0.     
       5-1.439-6 9.482-6 0.     
       6 2.076-6 9.394-6 0.     
       7-1.333-6 5.678-6 0.     
       8 2.269-6 5.647-6 0.     
       9-6.520-7 2.439-6 0.     
      10 1.916-6 2.279-6 0.     
      11 5.335-7 5.335-7 0.     
      12 9.462-7 7.674-7 0.     
      13 7.674-7 9.462-7 0.     
      14 2.439-6-6.520-7 0.     
      15 6.672-7 6.672-7 0.     
      16 2.279-6 1.916-6 0.     
      17 5.678-6-1.333-6 0.     
      18 5.647-6 2.269-6 0.     
      19 9.482-6-1.439-6 0.     
      20 9.394-6 2.076-6 0.     
      21 1.258-5-9.835-7 0.     
      22 1.256-5 1.328-6 0.     
      23 1.404-5 0.      0.     
      24 1.383-5 0.      0.     
  6000     1    71                                                    24
       1 0.      1.427-5 0.     
       2 0.      1.405-5 0.     
       3-9.985-7 1.278-5 0.     
       4 1.347-6 1.276-5 0.     
       5-1.462-6 9.637-6 0.     
       6 2.107-6 9.548-6 0.     
       7-1.357-6 5.772-6 0.     
       8 2.304-6 5.741-6 0.     
       9-6.659-7 2.479-6 0.     
      10 1.947-6 2.316-6 0.     
      11 5.394-7 5.394-7 0.     
      12 9.598-7 7.777-7 0.     
      13 7.777-7 9.598-7 0.     
      14 2.479-6-6.659-7 0.     
      15 6.754-7 6.754-7 0.     
      16 2.316-6 1.947-6 0.     
      17 5.772-6-1.357-6 0.     
      18 5.741-6 2.304-6 0.     
      19 9.637-6-1.462-6 0.     
      20 9.548-6 2.107-6 0.     
      21 1.278-5-9.985-7 0.     
      22 1.276-5 1.347-6 0.     
      23 1.427-5 0.      0.     
      24 1.405-5 0.      0.     
  6000     1    72                                                    24
       1 0.      1.438-5 0.     
       2 0.      1.416-5 0.     
       3-1.008-6 1.288-5 0.     
       4 1.361-6 1.286-5 0.     
       5-1.473-6 9.706-6 0.     
       6 2.126-6 9.616-6 0.     
       7-1.364-6 5.811-6 0.     
       8 2.323-6 5.780-6 0.     
       9-6.659-7 2.497-6 0.     
      10 1.962-6 2.333-6 0.     
      11 5.477-7 5.477-7 0.     
      12 9.694-7 7.868-7 0.     
      13 7.868-7 9.694-7 0.     
      14 2.497-6-6.659-7 0.     
      15 6.843-7 6.843-7 0.     
      16 2.333-6 1.962-6 0.     
      17 5.811-6-1.364-6 0.     
      18 5.780-6 2.323-6 0.     
      19 9.706-6-1.473-6 0.     
      20 9.616-6 2.126-6 0.     
      21 1.288-5-1.008-6 0.     
      22 1.286-5 1.361-6 0.     
      23 1.438-5 0.      0.     
      24 1.416-5 0.      0.     
  6000     1    73                                                    24
       1 0.      1.440-5 0.     
       2 0.      1.418-5 0.     
       3-1.010-6 1.289-5 0.     
       4 1.366-6 1.287-5 0.     
       5-1.475-6 9.715-6 0.     
       6 2.131-6 9.623-6 0.     
       7-1.363-6 5.815-6 0.     
       8 2.326-6 5.783-6 0.     
       9-6.624-7 2.500-6 0.     
      10 1.965-6 2.336-6 0.     
      11 5.528-7 5.528-7 0.     
      12 9.726-7 7.907-7 0.     
      13 7.907-7 9.726-7 0.     
      14 2.500-6-6.624-7 0.     
      15 6.887-7 6.887-7 0.     
      16 2.336-6 1.965-6 0.     
      17 5.815-6-1.363-6 0.     
      18 5.783-6 2.326-6 0.     
      19 9.715-6-1.475-6 0.     
      20 9.623-6 2.131-6 0.     
      21 1.289-5-1.010-6 0.     
      22 1.287-5 1.366-6 0.     
      23 1.440-5 0.      0.     
      24 1.418-5 0.      0.     
  6000     1    74                                                    24
       1 0.      1.442-5 0.     
       2 0.      1.420-5 0.     
       3-1.013-6 1.291-5 0.     
       4 1.370-6 1.289-5 0.     
       5-1.476-6 9.723-6 0.     
       6 2.135-6 9.632-6 0.     
       7-1.362-6 5.819-6 0.     
       8 2.330-6 5.787-6 0.     
       9-6.598-7 2.503-6 0.     
      10 1.967-6 2.339-6 0.     
      11 5.572-7 5.572-7 0.     
      12 9.752-7 7.939-7 0.     
      13 7.939-7 9.752-7 0.     
      14 2.503-6-6.598-7 0.     
      15 6.926-7 6.926-7 0.     
      16 2.339-6 1.967-6 0.     
      17 5.819-6-1.362-6 0.     
      18 5.787-6 2.330-6 0.     
      19 9.723-6-1.476-6 0.     
      20 9.632-6 2.135-6 0.     
      21 1.291-5-1.013-6 0.     
      22 1.289-5 1.370-6 0.     
      23 1.442-5 0.      0.     
      24 1.420-5 0.      0.     
  6000     1    75                                                    24
       1 0.      1.453-5 0.     
       2 0.      1.430-5 0.     
       3-1.021-6 1.299-5 0.     
       4 1.382-6 1.298-5 0.     
       5-1.486-6 9.786-6 0.     
       6 2.153-6 9.693-6 0.     
       7-1.368-6 5.854-6 0.     
       8 2.347-6 5.821-6 0.     
       9-6.590-7 2.519-6 0.     
      10 1.981-6 2.354-6 0.     
      11 5.656-7 5.656-7 0.     
      12 9.844-7 8.027-7 0.     
      13 8.027-7 9.844-7 0.     
      14 2.519-6-6.590-7 0.     
      15 7.013-7 7.013-7 0.     
      16 2.354-6 1.981-6 0.     
      17 5.854-6-1.368-6 0.     
      18 5.821-6 2.347-6 0.     
      19 9.786-6-1.486-6 0.     
      20 9.693-6 2.153-6 0.     
      21 1.299-5-1.021-6 0.     
      22 1.298-5 1.382-6 0.     
      23 1.453-5 0.      0.     
      24 1.430-5 0.      0.     
  6000     1    76                                                    24
       1 0.      1.476-5 0.     
       2 0.      1.453-5 0.     
       3-1.037-6 1.321-5 0.     
       4 1.403-6 1.319-5 0.     
       5-1.510-6 9.947-6 0.     
       6 2.186-6 9.853-6 0.     
       7-1.392-6 5.952-6 0.     
       8 2.384-6 5.919-6 0.     
       9-6.728-7 2.560-6 0.     
      10 2.013-6 2.393-6 0.     
      11 5.721-7 5.721-7 0.     
      12 9.988-7 8.137-7 0.     
      13 8.137-7 9.988-7 0.     
      14 2.560-6-6.728-7 0.     
      15 7.104-7 7.104-7 0.     
      16 2.393-6 2.013-6 0.     
      17 5.952-6-1.392-6 0.     
      18 5.919-6 2.384-6 0.     
      19 9.947-6-1.510-6 0.     
      20 9.853-6 2.186-6 0.     
      21 1.321-5-1.037-6 0.     
      22 1.319-5 1.403-6 0.     
      23 1.476-5 0.      0.     
      24 1.453-5 0.      0.     
  6000     1    77                                                    24
       1 0.      1.511-5 0.     
       2 0.      1.488-5 0.     
       3-1.060-6 1.352-5 0.     
       4 1.434-6 1.351-5 0.     
       5-1.547-6 1.019-5 0.     
       6 2.236-6 1.009-5 0.     
       7-1.428-6 6.099-6 0.     
       8 2.441-6 6.065-6 0.     
       9-6.932-7 2.623-6 0.     
      10 2.061-6 2.451-6 0.     
      11 5.819-7 5.819-7 0.     
      12 1.021-6 8.306-7 0.     
      13 8.306-7 1.021-6 0.     
      14 2.623-6-6.932-7 0.     
      15 7.241-7 7.241-7 0.     
      16 2.451-6 2.061-6 0.     
      17 6.099-6-1.428-6 0.     
      18 6.065-6 2.441-6 0.     
      19 1.019-5-1.547-6 0.     
      20 1.009-5 2.236-6 0.     
      21 1.352-5-1.060-6 0.     
      22 1.351-5 1.434-6 0.     
      23 1.511-5 0.      0.     
      24 1.488-5 0.      0.     
  6000     1    78                                                    24
       1 0.      1.549-5 0.     
       2 0.      1.525-5 0.     
       3-1.086-6 1.386-5 0.     
       4 1.468-6 1.385-5 0.     
       5-1.586-6 1.045-5 0.     
       6 2.291-6 1.035-5 0.     
       7-1.467-6 6.255-6 0.     
       8 2.502-6 6.221-6 0.     
       9-7.139-7 2.689-6 0.     
      10 2.113-6 2.512-6 0.     
      11 5.928-7 5.928-7 0.     
      12 1.045-6 8.492-7 0.     
      13 8.492-7 1.045-6 0.     
      14 2.689-6-7.139-7 0.     
      15 7.393-7 7.393-7 0.     
      16 2.512-6 2.113-6 0.     
      17 6.255-6-1.467-6 0.     
      18 6.221-6 2.502-6 0.     
      19 1.045-5-1.586-6 0.     
      20 1.035-5 2.291-6 0.     
      21 1.386-5-1.086-6 0.     
      22 1.385-5 1.468-6 0.     
      23 1.549-5 0.      0.     
      24 1.525-5 0.      0.     
  6000     1    79                                                    24
       1 0.      1.584-5 0.     
       2 0.      1.560-5 0.     
       3-1.109-6 1.418-5 0.     
       4 1.497-6 1.416-5 0.     
       5-1.623-6 1.069-5 0.     
       6 2.340-6 1.060-5 0.     
       7-1.505-6 6.405-6 0.     
       8 2.558-6 6.370-6 0.     
       9-7.371-7 2.751-6 0.     
      10 2.161-6 2.571-6 0.     
      11 6.006-7 6.006-7 0.     
      12 1.066-6 8.646-7 0.     
      13 8.646-7 1.066-6 0.     
      14 2.751-6-7.371-7 0.     
      15 7.513-7 7.513-7 0.     
      16 2.571-6 2.161-6 0.     
      17 6.405-6-1.505-6 0.     
      18 6.370-6 2.558-6 0.     
      19 1.069-5-1.623-6 0.     
      20 1.060-5 2.340-6 0.     
      21 1.418-5-1.109-6 0.     
      22 1.416-5 1.497-6 0.     
      23 1.584-5 0.      0.     
      24 1.560-5 0.      0.     
  6000     1    80                                                    24
       1 0.      1.608-5 0.     
       2 0.      1.583-5 0.     
       3-1.126-6 1.440-5 0.     
       4 1.520-6 1.438-5 0.     
       5-1.647-6 1.086-5 0.     
       6 2.376-6 1.075-5 0.     
       7-1.527-6 6.500-6 0.     
       8 2.597-6 6.465-6 0.     
       9-7.472-7 2.792-6 0.     
      10 2.194-6 2.609-6 0.     
      11 6.101-7 6.101-7 0.     
      12 1.083-6 8.781-7 0.     
      13 8.781-7 1.083-6 0.     
      14 2.792-6-7.472-7 0.     
      15 7.631-7 7.631-7 0.     
      16 2.609-6 2.194-6 0.     
      17 6.500-6-1.527-6 0.     
      18 6.465-6 2.597-6 0.     
      19 1.086-5-1.647-6 0.     
      20 1.075-5 2.376-6 0.     
      21 1.440-5-1.126-6 0.     
      22 1.438-5 1.520-6 0.     
      23 1.608-5 0.      0.     
      24 1.583-5 0.      0.     
  6000     1    81                                                    24
       1 0.      1.618-5 0.     
       2 0.      1.594-5 0.     
       3-1.134-6 1.449-5 0.     
       4 1.531-6 1.447-5 0.     
       5-1.657-6 1.092-5 0.     
       6 2.392-6 1.082-5 0.     
       7-1.535-6 6.538-6 0.     
       8 2.613-6 6.503-6 0.     
       9-7.491-7 2.809-6 0.     
      10 2.207-6 2.625-6 0.     
      11 6.165-7 6.165-7 0.     
      12 1.091-6 8.853-7 0.     
      13 8.853-7 1.091-6 0.     
      14 2.809-6-7.491-7 0.     
      15 7.700-7 7.700-7 0.     
      16 2.625-6 2.207-6 0.     
      17 6.538-6-1.535-6 0.     
      18 6.503-6 2.613-6 0.     
      19 1.092-5-1.657-6 0.     
      20 1.082-5 2.392-6 0.     
      21 1.449-5-1.134-6 0.     
      22 1.447-5 1.531-6 0.     
      23 1.618-5 0.      0.     
      24 1.594-5 0.      0.     
  6000     1    82                                                    24
       1 0.      1.620-5 0.     
       2 0.      1.596-5 0.     
       3-1.136-6 1.450-5 0.     
       4 1.535-6 1.448-5 0.     
       5-1.659-6 1.093-5 0.     
       6 2.396-6 1.083-5 0.     
       7-1.534-6 6.543-6 0.     
       8 2.617-6 6.507-6 0.     
       9-7.469-7 2.813-6 0.     
      10 2.210-6 2.628-6 0.     
      11 6.206-7 6.206-7 0.     
      12 1.093-6 8.884-7 0.     
      13 8.884-7 1.093-6 0.     
      14 2.813-6-7.469-7 0.     
      15 7.737-7 7.737-7 0.     
      16 2.628-6 2.210-6 0.     
      17 6.543-6-1.534-6 0.     
      18 6.507-6 2.617-6 0.     
      19 1.093-5-1.659-6 0.     
      20 1.083-5 2.396-6 0.     
      21 1.450-5-1.136-6 0.     
      22 1.448-5 1.535-6 0.     
      23 1.620-5 0.      0.     
      24 1.596-5 0.      0.     
  6000     1    83                                                    24
       1 0.      1.623-5 0.     
       2 0.      1.598-5 0.     
       3-1.139-6 1.452-5 0.     
       4 1.542-6 1.450-5 0.     
       5-1.660-6 1.094-5 0.     
       6 2.403-6 1.083-5 0.     
       7-1.531-6 6.544-6 0.     
       8 2.621-6 6.507-6 0.     
       9-7.402-7 2.815-6 0.     
      10 2.213-6 2.630-6 0.     
      11 6.280-7 6.280-7 0.     
      12 1.098-6 8.941-7 0.     
      13 8.941-7 1.098-6 0.     
      14 2.815-6-7.402-7 0.     
      15 7.802-7 7.802-7 0.     
      16 2.630-6 2.213-6 0.     
      17 6.544-6-1.531-6 0.     
      18 6.507-6 2.621-6 0.     
      19 1.094-5-1.660-6 0.     
      20 1.083-5 2.403-6 0.     
      21 1.452-5-1.139-6 0.     
      22 1.450-5 1.542-6 0.     
      23 1.623-5 0.      0.     
      24 1.598-5 0.      0.     
  6000     1    84                                                    24
       1 0.      1.633-5 0.     
       2 0.      1.608-5 0.     
       3-1.148-6 1.461-5 0.     
       4 1.553-6 1.459-5 0.     
       5-1.671-6 1.101-5 0.     
       6 2.419-6 1.090-5 0.     
       7-1.540-6 6.585-6 0.     
       8 2.638-6 6.548-6 0.     
       9-7.436-7 2.833-6 0.     
      10 2.228-6 2.647-6 0.     
      11 6.338-7 6.338-7 0.     
      12 1.106-6 9.010-7 0.     
      13 9.010-7 1.106-6 0.     
      14 2.833-6-7.436-7 0.     
      15 7.867-7 7.867-7 0.     
      16 2.647-6 2.228-6 0.     
      17 6.585-6-1.540-6 0.     
      18 6.548-6 2.638-6 0.     
      19 1.101-5-1.671-6 0.     
      20 1.090-5 2.419-6 0.     
      21 1.461-5-1.148-6 0.     
      22 1.459-5 1.553-6 0.     
      23 1.633-5 0.      0.     
      24 1.608-5 0.      0.     
  6000     1    85                                                    24
       1 0.      1.656-5 0.     
       2 0.      1.630-5 0.     
       3-1.163-6 1.481-5 0.     
       4 1.573-6 1.479-5 0.     
       5-1.694-6 1.116-5 0.     
       6 2.451-6 1.105-5 0.     
       7-1.562-6 6.677-6 0.     
       8 2.674-6 6.640-6 0.     
       9-7.557-7 2.872-6 0.     
      10 2.258-6 2.684-6 0.     
      11 6.409-7 6.409-7 0.     
      12 1.120-6 9.122-7 0.     
      13 9.122-7 1.120-6 0.     
      14 2.872-6-7.557-7 0.     
      15 7.961-7 7.961-7 0.     
      16 2.684-6 2.258-6 0.     
      17 6.677-6-1.562-6 0.     
      18 6.640-6 2.674-6 0.     
      19 1.116-5-1.694-6 0.     
      20 1.105-5 2.451-6 0.     
      21 1.481-5-1.163-6 0.     
      22 1.479-5 1.573-6 0.     
      23 1.656-5 0.      0.     
      24 1.630-5 0.      0.     
  6000     1    86                                                    24
       1 0.      1.691-5 0.     
       2 0.      1.665-5 0.     
       3-1.187-6 1.513-5 0.     
       4 1.605-6 1.511-5 0.     
       5-1.731-6 1.140-5 0.     
       6 2.503-6 1.129-5 0.     
       7-1.597-6 6.822-6 0.     
       8 2.731-6 6.784-6 0.     
       9-7.737-7 2.934-6 0.     
      10 2.306-6 2.741-6 0.     
      11 6.523-7 6.523-7 0.     
      12 1.143-6 9.304-7 0.     
      13 9.304-7 1.143-6 0.     
      14 2.934-6-7.737-7 0.     
      15 8.113-7 8.113-7 0.     
      16 2.742-6 2.306-6 0.     
      17 6.822-6-1.597-6 0.     
      18 6.784-6 2.731-6 0.     
      19 1.140-5-1.731-6 0.     
      20 1.129-5 2.503-6 0.     
      21 1.513-5-1.187-6 0.     
      22 1.511-5 1.605-6 0.     
      23 1.691-5 0.      0.     
      24 1.665-5 0.      0.     
  6000     1    87                                                    24
       1 0.      1.730-5 0.     
       2 0.      1.704-5 0.     
       3-1.213-6 1.549-5 0.     
       4 1.638-6 1.547-5 0.     
       5-1.772-6 1.168-5 0.     
       6 2.558-6 1.157-5 0.     
       7-1.640-6 6.990-6 0.     
       8 2.795-6 6.952-6 0.     
       9-7.998-7 3.004-6 0.     
      10 2.361-6 2.807-6 0.     
      11 6.608-7 6.608-7 0.     
      12 1.167-6 9.476-7 0.     
      13 9.476-7 1.167-6 0.     
      14 3.004-6-7.998-7 0.     
      15 8.246-7 8.246-7 0.     
      16 2.807-6 2.361-6 0.     
      17 6.990-6-1.640-6 0.     
      18 6.952-6 2.795-6 0.     
      19 1.168-5-1.772-6 0.     
      20 1.157-5 2.558-6 0.     
      21 1.549-5-1.213-6 0.     
      22 1.547-5 1.638-6 0.     
      23 1.730-5 0.      0.     
      24 1.704-5 0.      0.     
  6000     1    88                                                    24
       1 0.      1.763-5 0.     
       2 0.      1.737-5 0.     
       3-1.235-6 1.579-5 0.     
       4 1.668-6 1.577-5 0.     
       5-1.807-6 1.191-5 0.     
       6 2.607-6 1.179-5 0.     
       7-1.674-6 7.129-6 0.     
       8 2.848-6 7.090-6 0.     
       9-8.183-7 3.063-6 0.     
      10 2.406-6 2.862-6 0.     
      11 6.705-7 6.705-7 0.     
      12 1.188-6 9.639-7 0.     
      13 9.639-7 1.188-6 0.     
      14 3.063-6-8.183-7 0.     
      15 8.381-7 8.381-7 0.     
      16 2.862-6 2.406-6 0.     
      17 7.129-6-1.674-6 0.     
      18 7.090-6 2.848-6 0.     
      19 1.191-5-1.807-6 0.     
      20 1.179-5 2.607-6 0.     
      21 1.579-5-1.235-6 0.     
      22 1.577-5 1.668-6 0.     
      23 1.763-5 0.      0.     
      24 1.737-5 0.      0.     
  6000     1    89                                                    24
       1 0.      1.787-5 0.     
       2 0.      1.761-5 0.     
       3-1.252-6 1.601-5 0.     
       4 1.691-6 1.598-5 0.     
       5-1.831-6 1.207-5 0.     
       6 2.642-6 1.196-5 0.     
       7-1.696-6 7.226-6 0.     
       8 2.887-6 7.186-6 0.     
       9-8.292-7 3.104-6 0.     
      10 2.439-6 2.901-6 0.     
      11 6.797-7 6.797-7 0.     
      12 1.205-6 9.772-7 0.     
      13 9.772-7 1.205-6 0.     
      14 3.104-6-8.292-7 0.     
      15 8.496-7 8.496-7 0.     
      16 2.901-6 2.439-6 0.     
      17 7.226-6-1.696-6 0.     
      18 7.186-6 2.887-6 0.     
      19 1.207-5-1.831-6 0.     
      20 1.196-5 2.642-6 0.     
      21 1.601-5-1.252-6 0.     
      22 1.598-5 1.691-6 0.     
      23 1.787-5 0.      0.     
      24 1.761-5 0.      0.     
  6000     1    90                                                    24
       1 0.      1.798-5 0.     
       2 0.      1.771-5 0.     
       3-1.260-6 1.610-5 0.     
       4 1.701-6 1.608-5 0.     
       5-1.842-6 1.214-5 0.     
       6 2.657-6 1.202-5 0.     
       7-1.706-6 7.268-6 0.     
       8 2.904-6 7.228-6 0.     
       9-8.339-7 3.123-6 0.     
      10 2.453-6 2.918-6 0.     
      11 6.843-7 6.843-7 0.     
      12 1.211-6 9.831-7 0.     
      13 9.831-7 1.211-6 0.     
      14 3.123-6-8.339-7 0.     
      15 8.550-7 8.550-7 0.     
      16 2.918-6 2.453-6 0.     
      17 7.268-6-1.706-6 0.     
      18 7.228-6 2.904-6 0.     
      19 1.214-5-1.842-6 0.     
      20 1.202-5 2.657-6 0.     
      21 1.610-5-1.260-6 0.     
      22 1.608-5 1.701-6 0.     
      23 1.798-5 0.      0.     
      24 1.771-5 0.      0.     
  6000     1    91                                                    24
       1 0.      1.800-5 0.     
       2 0.      1.773-5 0.     
       3-1.263-6 1.611-5 0.     
       4 1.707-6 1.609-5 0.     
       5-1.843-6 1.214-5 0.     
       6 2.664-6 1.203-5 0.     
       7-1.703-6 7.268-6 0.     
       8 2.908-6 7.228-6 0.     
       9-8.276-7 3.125-6 0.     
      10 2.456-6 2.920-6 0.     
      11 6.913-7 6.913-7 0.     
      12 1.216-6 9.885-7 0.     
      13 9.885-7 1.216-6 0.     
      14 3.125-6-8.276-7 0.     
      15 8.612-7 8.612-7 0.     
      16 2.920-6 2.456-6 0.     
      17 7.268-6-1.703-6 0.     
      18 7.228-6 2.908-6 0.     
      19 1.214-5-1.843-6 0.     
      20 1.203-5 2.664-6 0.     
      21 1.611-5-1.263-6 0.     
      22 1.609-5 1.707-6 0.     
      23 1.800-5 0.      0.     
      24 1.773-5 0.      0.     
  6000     1    92                                                    24
       1 0.      1.803-5 0.     
       2 0.      1.775-5 0.     
       3-1.265-6 1.613-5 0.     
       4 1.712-6 1.611-5 0.     
       5-1.845-6 1.215-5 0.     
       6 2.669-6 1.204-5 0.     
       7-1.702-6 7.271-6 0.     
       8 2.912-6 7.231-6 0.     
       9-8.239-7 3.127-6 0.     
      10 2.459-6 2.922-6 0.     
      11 6.964-7 6.964-7 0.     
      12 1.219-6 9.924-7 0.     
      13 9.924-7 1.219-6 0.     
      14 3.127-6-8.239-7 0.     
      15 8.657-7 8.657-7 0.     
      16 2.922-6 2.459-6 0.     
      17 7.271-6-1.702-6 0.     
      18 7.231-6 2.912-6 0.     
      19 1.215-5-1.845-6 0.     
      20 1.204-5 2.669-6 0.     
      21 1.613-5-1.265-6 0.     
      22 1.611-5 1.712-6 0.     
      23 1.803-5 0.      0.     
      24 1.775-5 0.      0.     
  6000     1    93                                                    24
       1 0.      1.813-5 0.     
       2 0.      1.785-5 0.     
       3-1.273-6 1.622-5 0.     
       4 1.723-6 1.620-5 0.     
       5-1.855-6 1.222-5 0.     
       6 2.684-6 1.210-5 0.     
[...]
      22 9.668-5 1.026-5 0.     
      23 1.082-4 0.      0.     
      24 1.065-4 0.      0.     
  6000     1   544                                                    24
       1 0.      1.084-4 0.     
       2 0.      1.068-4 0.     
       3-7.605-6 9.702-5 0.     
       4 1.028-5 9.690-5 0.     
       5-1.110-5 7.311-5 0.     
       6 1.604-5 7.243-5 0.     
       7-1.025-5 4.376-5 0.     
       8 1.751-5 4.352-5 0.     
       9-4.982-6 1.881-5 0.     
      10 1.479-5 1.758-5 0.     
      11 4.165-6 4.165-6 0.     
      12 7.321-6 5.953-6 0.     
      13 5.953-6 7.321-6 0.     
      14 1.881-5-4.982-6 0.     
      15 5.187-6 5.187-6 0.     
      16 1.758-5 1.479-5 0.     
      17 4.376-5-1.025-5 0.     
      18 4.352-5 1.751-5 0.     
      19 7.311-5-1.110-5 0.     
      20 7.243-5 1.604-5 0.     
      21 9.702-5-7.605-6 0.     
      22 9.690-5 1.028-5 0.     
      23 1.084-4 0.      0.     
      24 1.068-4 0.      0.     
  6000     1   545                                                    24
       1 0.      1.088-4 0.     
       2 0.      1.071-4 0.     
       3-7.629-6 9.735-5 0.     
       4 1.031-5 9.722-5 0.     
       5-1.114-5 7.336-5 0.     
       6 1.609-5 7.267-5 0.     
       7-1.029-5 4.391-5 0.     
       8 1.757-5 4.367-5 0.     
       9-5.003-6 1.888-5 0.     
      10 1.484-5 1.764-5 0.     
      11 4.175-6 4.175-6 0.     
      12 7.344-6 5.970-6 0.     
      13 5.970-6 7.344-6 0.     
      14 1.888-5-5.003-6 0.     
      15 5.201-6 5.201-6 0.     
      16 1.764-5 1.484-5 0.     
      17 4.391-5-1.029-5 0.     
      18 4.367-5 1.757-5 0.     
      19 7.336-5-1.114-5 0.     
      20 7.267-5 1.609-5 0.     
      21 9.735-5-7.629-6 0.     
      22 9.722-5 1.031-5 0.     
      23 1.088-4 0.      0.     
      24 1.071-4 0.      0.     
  6000     1   546                                                    24
       1 0.      1.092-4 0.     
       2 0.      1.075-4 0.     
       3-7.656-6 9.771-5 0.     
       4 1.035-5 9.758-5 0.     
       5-1.118-5 7.364-5 0.     
       6 1.615-5 7.295-5 0.     
       7-1.033-5 4.408-5 0.     
       8 1.763-5 4.384-5 0.     
       9-5.025-6 1.895-5 0.     
      10 1.489-5 1.771-5 0.     
      11 4.186-6 4.186-6 0.     
      12 7.369-6 5.990-6 0.     
      13 5.990-6 7.369-6 0.     
      14 1.895-5-5.025-6 0.     
      15 5.217-6 5.217-6 0.     
      16 1.771-5 1.489-5 0.     
      17 4.408-5-1.033-5 0.     
      18 4.384-5 1.763-5 0.     
      19 7.364-5-1.118-5 0.     
      20 7.295-5 1.615-5 0.     
      21 9.771-5-7.656-6 0.     
      22 9.758-5 1.035-5 0.     
      23 1.092-4 0.      0.     
      24 1.075-4 0.      0.     
  6000     1   547                                                    24
       1 0.      1.095-4 0.     
       2 0.      1.078-4 0.     
       3-7.678-6 9.801-5 0.     
       4 1.038-5 9.789-5 0.     
       5-1.121-5 7.387-5 0.     
       6 1.620-5 7.318-5 0.     
       7-1.037-5 4.422-5 0.     
       8 1.769-5 4.398-5 0.     
       9-5.047-6 1.901-5 0.     
      10 1.494-5 1.776-5 0.     
      11 4.194-6 4.194-6 0.     
      12 7.390-6 6.005-6 0.     
      13 6.005-6 7.390-6 0.     
      14 1.901-5-5.047-6 0.     
      15 5.229-6 5.229-6 0.     
      16 1.776-5 1.494-5 0.     
      17 4.422-5-1.037-5 0.     
      18 4.398-5 1.769-5 0.     
      19 7.387-5-1.121-5 0.     
      20 7.318-5 1.620-5 0.     
      21 9.801-5-7.678-6 0.     
      22 9.789-5 1.038-5 0.     
      23 1.095-4 0.      0.     
      24 1.078-4 0.      0.     
  6000     1   548                                                    24
       1 0.      1.097-4 0.     
       2 0.      1.080-4 0.     
       3-7.693-6 9.820-5 0.     
       4 1.040-5 9.807-5 0.     
       5-1.123-5 7.401-5 0.     
       6 1.623-5 7.332-5 0.     
       7-1.039-5 4.430-5 0.     
       8 1.772-5 4.406-5 0.     
       9-5.055-6 1.904-5 0.     
      10 1.497-5 1.780-5 0.     
      11 4.202-6 4.202-6 0.     
      12 7.404-6 6.017-6 0.     
      13 6.017-6 7.404-6 0.     
      14 1.904-5-5.055-6 0.     
      15 5.239-6 5.239-6 0.     
      16 1.780-5 1.497-5 0.     
      17 4.430-5-1.039-5 0.     
      18 4.406-5 1.772-5 0.     
      19 7.401-5-1.123-5 0.     
      20 7.332-5 1.623-5 0.     
      21 9.820-5-7.693-6 0.     
      22 9.807-5 1.040-5 0.     
      23 1.097-4 0.      0.     
      24 1.080-4 0.      0.     
  6000     1   549                                                    24
       1 0.      1.098-4 0.     
       2 0.      1.081-4 0.     
       3-7.700-6 9.828-5 0.     
       4 1.041-5 9.815-5 0.     
       5-1.124-5 7.407-5 0.     
       6 1.624-5 7.337-5 0.     
       7-1.039-5 4.434-5 0.     
       8 1.774-5 4.409-5 0.     
       9-5.056-6 1.906-5 0.     
      10 1.498-5 1.781-5 0.     
      11 4.209-6 4.210-6 0.     
      12 7.412-6 6.024-6 0.     
      13 6.024-6 7.412-6 0.     
      14 1.906-5-5.056-6 0.     
      15 5.247-6 5.247-6 0.     
      16 1.781-5 1.498-5 0.     
      17 4.434-5-1.039-5 0.     
      18 4.409-5 1.774-5 0.     
      19 7.407-5-1.124-5 0.     
      20 7.337-5 1.624-5 0.     
      21 9.828-5-7.700-6 0.     
      22 9.815-5 1.041-5 0.     
      23 1.098-4 0.      0.     
      24 1.081-4 0.      0.     
  6000     1   550                                                    24
       1 0.      1.098-4 0.     
       2 0.      1.081-4 0.     
       3-7.702-6 9.829-5 0.     
       4 1.041-5 9.816-5 0.     
       5-1.124-5 7.407-5 0.     
       6 1.625-5 7.338-5 0.     
       7-1.039-5 4.434-5 0.     
       8 1.774-5 4.409-5 0.     
       9-5.053-6 1.906-5 0.     
      10 1.498-5 1.781-5 0.     
      11 4.213-6 4.213-6 0.     
      12 7.414-6 6.027-6 0.     
      13 6.027-6 7.414-6 0.     
      14 1.906-5-5.053-6 0.     
      15 5.250-6 5.250-6 0.     
      16 1.781-5 1.498-5 0.     
      17 4.434-5-1.039-5 0.     
      18 4.409-5 1.774-5 0.     
      19 7.407-5-1.124-5 0.     
      20 7.338-5 1.625-5 0.     
      21 9.829-5-7.702-6 0.     
      22 9.816-5 1.041-5 0.     
      23 1.098-4 0.      0.     
      24 1.081-4 0.      0.     
  6000     1   551                                                    24
       1 0.      1.098-4 0.     
       2 0.      1.082-4 0.     
       3-7.706-6 9.831-5 0.     
       4 1.042-5 9.818-5 0.     
       5-1.125-5 7.408-5 0.     
       6 1.625-5 7.339-5 0.     
       7-1.039-5 4.434-5 0.     
       8 1.774-5 4.410-5 0.     
       9-5.048-6 1.906-5 0.     
      10 1.498-5 1.781-5 0.     
      11 4.220-6 4.220-6 0.     
      12 7.419-6 6.032-6 0.     
      13 6.032-6 7.419-6 0.     
      14 1.906-5-5.048-6 0.     
      15 5.256-6 5.256-6 0.     
      16 1.781-5 1.498-5 0.     
      17 4.434-5-1.039-5 0.     
      18 4.410-5 1.774-5 0.     
      19 7.408-5-1.125-5 0.     
      20 7.339-5 1.625-5 0.     
      21 9.831-5-7.706-6 0.     
      22 9.818-5 1.042-5 0.     
      23 1.098-4 0.      0.     
      24 1.082-4 0.      0.     
  6000     1   552                                                    24
       1 0.      1.100-4 0.     
       2 0.      1.083-4 0.     
       3-7.715-6 9.842-5 0.     
       4 1.043-5 9.829-5 0.     
       5-1.126-5 7.416-5 0.     
       6 1.627-5 7.347-5 0.     
       7-1.040-5 4.439-5 0.     
       8 1.776-5 4.414-5 0.     
       9-5.052-6 1.908-5 0.     
      10 1.500-5 1.783-5 0.     
      11 4.226-6 4.226-6 0.     
      12 7.427-6 6.040-6 0.     
      13 6.040-6 7.427-6 0.     
      14 1.908-5-5.052-6 0.     
      15 5.263-6 5.263-6 0.     
      16 1.783-5 1.500-5 0.     
      17 4.439-5-1.040-5 0.     
      18 4.414-5 1.776-5 0.     
      19 7.416-5-1.126-5 0.     
      20 7.347-5 1.627-5 0.     
      21 9.842-5-7.715-6 0.     
      22 9.829-5 1.043-5 0.     
      23 1.100-4 0.      0.     
      24 1.083-4 0.      0.     
  6000     1   553                                                    24
       1 0.      1.102-4 0.     
       2 0.      1.085-4 0.     
       3-7.732-6 9.865-5 0.     
       4 1.045-5 9.852-5 0.     
       5-1.128-5 7.434-5 0.     
       6 1.631-5 7.364-5 0.     
       7-1.043-5 4.450-5 0.     
       8 1.780-5 4.425-5 0.     
       9-5.066-6 1.913-5 0.     
      10 1.504-5 1.788-5 0.     
      11 4.234-6 4.234-6 0.     
      12 7.443-6 6.052-6 0.     
      13 6.052-6 7.443-6 0.     
      14 1.913-5-5.066-6 0.     
      15 5.273-6 5.273-6 0.     
      16 1.788-5 1.504-5 0.     
      17 4.450-5-1.043-5 0.     
      18 4.425-5 1.780-5 0.     
      19 7.434-5-1.128-5 0.     
      20 7.364-5 1.631-5 0.     
      21 9.865-5-7.732-6 0.     
      22 9.852-5 1.045-5 0.     
      23 1.102-4 0.      0.     
      24 1.085-4 0.      0.     
  6000     1   554                                                    24
       1 0.      1.106-4 0.     
       2 0.      1.089-4 0.     
       3-7.756-6 9.896-5 0.     
       4 1.048-5 9.883-5 0.     
       5-1.132-5 7.457-5 0.     
       6 1.636-5 7.387-5 0.     
       7-1.046-5 4.464-5 0.     
       8 1.786-5 4.439-5 0.     
       9-5.084-6 1.919-5 0.     
      10 1.508-5 1.793-5 0.     
      11 4.245-6 4.245-6 0.     
      12 7.466-6 6.070-6 0.     
      13 6.070-6 7.466-6 0.     
      14 1.919-5-5.084-6 0.     
      15 5.288-6 5.288-6 0.     
      16 1.793-5 1.508-5 0.     
      17 4.464-5-1.046-5 0.     
      18 4.439-5 1.786-5 0.     
      19 7.457-5-1.132-5 0.     
      20 7.387-5 1.636-5 0.     
      21 9.896-5-7.756-6 0.     
      22 9.883-5 1.048-5 0.     
      23 1.106-4 0.      0.     
      24 1.089-4 0.      0.     
  6000     1   555                                                    24
       1 0.      1.110-4 0.     
       2 0.      1.093-4 0.     
       3-7.781-6 9.931-5 0.     
       4 1.052-5 9.919-5 0.     
       5-1.136-5 7.485-5 0.     
       6 1.641-5 7.415-5 0.     
       7-1.050-5 4.480-5 0.     
       8 1.792-5 4.456-5 0.     
       9-5.110-6 1.926-5 0.     
      10 1.514-5 1.800-5 0.     
      11 4.254-6 4.254-6 0.     
      12 7.489-6 6.087-6 0.     
      13 6.087-6 7.490-6 0.     
      14 1.926-5-5.110-6 0.     
      15 5.302-6 5.302-6 0.     
      16 1.800-5 1.514-5 0.     
      17 4.480-5-1.050-5 0.     
      18 4.456-5 1.792-5 0.     
      19 7.485-5-1.136-5 0.     
      20 7.415-5 1.641-5 0.     
      21 9.931-5-7.781-6 0.     
      22 9.919-5 1.052-5 0.     
      23 1.110-4 0.      0.     
      24 1.093-4 0.      0.     
  6000     1   556                                                    24
       1 0.      1.113-4 0.     
       2 0.      1.096-4 0.     
       3-7.804-6 9.962-5 0.     
       4 1.055-5 9.949-5 0.     
       5-1.140-5 7.508-5 0.     
       6 1.646-5 7.438-5 0.     
       7-1.054-5 4.495-5 0.     
       8 1.798-5 4.470-5 0.     
       9-5.129-6 1.932-5 0.     
      10 1.518-5 1.805-5 0.     
      11 4.264-6 4.263-6 0.     
      12 7.511-6 6.104-6 0.     
      13 6.104-6 7.511-6 0.     
      14 1.932-5-5.129-6 0.     
      15 5.315-6 5.315-6 0.     
      16 1.805-5 1.518-5 0.     
      17 4.495-5-1.054-5 0.     
      18 4.470-5 1.798-5 0.     
      19 7.508-5-1.140-5 0.     
      20 7.438-5 1.646-5 0.     
      21 9.962-5-7.804-6 0.     
      22 9.949-5 1.055-5 0.     
      23 1.113-4 0.      0.     
      24 1.096-4 0.      0.     
  6000     1   557                                                    24
       1 0.      1.115-4 0.     
       2 0.      1.098-4 0.     
       3-7.820-6 9.982-5 0.     
       4 1.057-5 9.969-5 0.     
       5-1.142-5 7.523-5 0.     
       6 1.650-5 7.452-5 0.     
       7-1.056-5 4.503-5 0.     
       8 1.801-5 4.478-5 0.     
       9-5.138-6 1.936-5 0.     
      10 1.521-5 1.809-5 0.     
      11 4.273-6 4.273-6 0.     
      12 7.526-6 6.116-6 0.     
      13 6.116-6 7.526-6 0.     
      14 1.936-5-5.138-6 0.     
      15 5.326-6 5.326-6 0.     
      16 1.809-5 1.521-5 0.     
      17 4.503-5-1.056-5 0.     
      18 4.478-5 1.801-5 0.     
      19 7.523-5-1.142-5 0.     
      20 7.452-5 1.650-5 0.     
      21 9.982-5-7.820-6 0.     
      22 9.969-5 1.057-5 0.     
      23 1.115-4 0.      0.     
      24 1.098-4 0.      0.     
  6000     1   558                                                    24
       1 0.      1.116-4 0.     
       2 0.      1.099-4 0.     
       3-7.826-6 9.989-5 0.     
       4 1.058-5 9.976-5 0.     
       5-1.143-5 7.528-5 0.     
       6 1.651-5 7.458-5 0.     
       7-1.056-5 4.507-5 0.     
       8 1.803-5 4.482-5 0.     
       9-5.141-6 1.937-5 0.     
      10 1.522-5 1.810-5 0.     
      11 4.277-6 4.277-6 0.     
      12 7.532-6 6.121-6 0.     
      13 6.121-6 7.532-6 0.     
      14 1.937-5-5.141-6 0.     
      15 5.331-6 5.331-6 0.     
      16 1.810-5 1.522-5 0.     
      17 4.507-5-1.056-5 0.     
      18 4.482-5 1.803-5 0.     
      19 7.528-5-1.143-5 0.     
      20 7.458-5 1.651-5 0.     
      21 9.989-5-7.826-6 0.     
      22 9.976-5 1.058-5 0.     
      23 1.116-4 0.      0.     
      24 1.099-4 0.      0.     
  6000     1   559                                                    24
       1 0.      1.116-4 0.     
       2 0.      1.099-4 0.     
       3-7.829-6 9.990-5 0.     
       4 1.058-5 9.977-5 0.     
       5-1.143-5 7.529-5 0.     
       6 1.651-5 7.458-5 0.     
       7-1.056-5 4.506-5 0.     
       8 1.803-5 4.482-5 0.     
       9-5.135-6 1.937-5 0.     
      10 1.523-5 1.810-5 0.     
      11 4.284-6 4.284-6 0.     
      12 7.536-6 6.126-6 0.     
      13 6.126-6 7.536-6 0.     
      14 1.937-5-5.135-6 0.     
      15 5.337-6 5.337-6 0.     
      16 1.810-5 1.523-5 0.     
      17 4.507-5-1.056-5 0.     
      18 4.482-5 1.803-5 0.     
      19 7.529-5-1.143-5 0.     
      20 7.458-5 1.651-5 0.     
      21 9.990-5-7.829-6 0.     
      22 9.977-5 1.058-5 0.     
      23 1.116-4 0.      0.     
      24 1.099-4 0.      0.     
  6000     1   560                                                    24
       1 0.      1.116-4 0.     
       2 0.      1.100-4 0.     
       3-7.832-6 9.992-5 0.     
       4 1.059-5 9.979-5 0.     
       5-1.143-5 7.530-5 0.     
       6 1.652-5 7.459-5 0.     
       7-1.056-5 4.507-5 0.     
       8 1.803-5 4.482-5 0.     
       9-5.131-6 1.938-5 0.     
      10 1.523-5 1.811-5 0.     
      11 4.289-6 4.289-6 0.     
      12 7.540-6 6.131-6 0.     
      13 6.131-6 7.540-6 0.     
      14 1.938-5-5.131-6 0.     
      15 5.342-6 5.342-6 0.     
      16 1.811-5 1.523-5 0.     
      17 4.507-5-1.056-5 0.     
      18 4.482-5 1.803-5 0.     
      19 7.530-5-1.143-5 0.     
      20 7.459-5 1.652-5 0.     
      21 9.992-5-7.832-6 0.     
      22 9.979-5 1.059-5 0.     
      23 1.116-4 0.      0.     
      24 1.100-4 0.      0.     
  6000     1   561                                                    24
       1 0.      1.118-4 0.     
       2 0.      1.101-4 0.     
       3-7.840-6 1.000-4 0.     
       4 1.060-5 9.990-5 0.     
       5-1.144-5 7.538-5 0.     
       6 1.654-5 7.467-5 0.     
       7-1.057-5 4.512-5 0.     
       8 1.805-5 4.487-5 0.     
       9-5.136-6 1.940-5 0.     
      10 1.525-5 1.813-5 0.     
      11 4.294-6 4.294-6 0.     
      12 7.548-6 6.138-6 0.     
      13 6.138-6 7.548-6 0.     
      14 1.940-5-5.136-6 0.     
      15 5.348-6 5.348-6 0.     
      16 1.813-5 1.525-5 0.     
      17 4.512-5-1.057-5 0.     
      18 4.487-5 1.805-5 0.     
      19 7.538-5-1.144-5 0.     
      20 7.467-5 1.654-5 0.     
      21 1.000-4-7.840-6 0.     
      22 9.990-5 1.060-5 0.     
      23 1.118-4 0.      0.     
      24 1.101-4 0.      0.     
  6000     1   562                                                    24
       1 0.      1.120-4 0.     
       2 0.      1.103-4 0.     
       3-7.858-6 1.003-4 0.     
       4 1.062-5 1.001-4 0.     
       5-1.147-5 7.555-5 0.     
       6 1.657-5 7.484-5 0.     
       7-1.059-5 4.522-5 0.     
       8 1.809-5 4.497-5 0.     
       9-5.147-6 1.944-5 0.     
      10 1.528-5 1.817-5 0.     
      11 4.305-6 4.305-6 0.     
      12 7.566-6 6.152-6 0.     
      13 6.152-6 7.566-6 0.     
      14 1.944-5-5.147-6 0.     
      15 5.361-6 5.361-6 0.     
      16 1.817-5 1.528-5 0.     
      17 4.522-5-1.059-5 0.     
      18 4.497-5 1.809-5 0.     
      19 7.555-5-1.147-5 0.     
      20 7.484-5 1.657-5 0.     
      21 1.003-4-7.858-6 0.     
      22 1.001-4 1.062-5 0.     
      23 1.120-4 0.      0.     
      24 1.103-4 0.      0.     
  6000     1   563                                                    24
       1 0.      1.124-4 0.     
       2 0.      1.107-4 0.     
       3-7.882-6 1.006-4 0.     
       4 1.065-5 1.005-4 0.     
       5-1.151-5 7.580-5 0.     
       6 1.663-5 7.509-5 0.     
       7-1.063-5 4.537-5 0.     
       8 1.815-5 4.512-5 0.     
       9-5.169-6 1.951-5 0.     
      10 1.533-5 1.823-5 0.     
      11 4.313-6 4.313-6 0.     
      12 7.588-6 6.169-6 0.     
      13 6.169-6 7.588-6 0.     
      14 1.951-5-5.169-6 0.     
      15 5.374-6 5.374-6 0.     
      16 1.823-5 1.533-5 0.     
      17 4.537-5-1.063-5 0.     
      18 4.512-5 1.815-5 0.     
      19 7.580-5-1.151-5 0.     
      20 7.509-5 1.663-5 0.     
      21 1.006-4-7.882-6 0.     
      22 1.005-4 1.065-5 0.     
      23 1.124-4 0.      0.     
      24 1.107-4 0.      0.     
  6000     1   564                                                    24
       1 0.      1.127-4 0.     
       2 0.      1.110-4 0.     
       3-7.907-6 1.009-4 0.     
       4 1.069-5 1.008-4 0.     
       5-1.155-5 7.606-5 0.     
       6 1.668-5 7.535-5 0.     
       7-1.067-5 4.553-5 0.     
       8 1.821-5 4.528-5 0.     
       9-5.192-6 1.957-5 0.     
      10 1.538-5 1.829-5 0.     
      11 4.323-6 4.323-6 0.     
      12 7.611-6 6.186-6 0.     
      13 6.186-6 7.611-6 0.     
      14 1.957-5-5.192-6 0.     
      15 5.387-6 5.387-6 0.     
      16 1.829-5 1.538-5 0.     
      17 4.553-5-1.067-5 0.     
      18 4.528-5 1.821-5 0.     
      19 7.606-5-1.155-5 0.     
      20 7.535-5 1.668-5 0.     
      21 1.009-4-7.907-6 0.     
      22 1.008-4 1.069-5 0.     
      23 1.127-4 0.      0.     
      24 1.110-4 0.      0.     
  6000     1   565                                                    24
       1 0.      1.131-4 0.     
       2 0.      1.114-4 0.     
       3-7.931-6 1.012-4 0.     
       4 1.072-5 1.011-4 0.     
       5-1.158-5 7.629-5 0.     
       6 1.673-5 7.558-5 0.     
       7-1.071-5 4.567-5 0.     
       8 1.827-5 4.542-5 0.     
       9-5.210-6 1.963-5 0.     
      10 1.543-5 1.834-5 0.     
      11 4.334-6 4.334-6 0.     
      12 7.633-6 6.203-6 0.     
      13 6.203-6 7.633-6 0.     
      14 1.963-5-5.210-6 0.     
      15 5.402-6 5.402-6 0.     
      16 1.834-5 1.543-5 0.     
      17 4.567-5-1.071-5 0.     
      18 4.542-5 1.827-5 0.     
      19 7.629-5-1.158-5 0.     
      20 7.558-5 1.673-5 0.     
      21 1.012-4-7.931-6 0.     
      22 1.011-4 1.072-5 0.     
      23 1.131-4 0.      0.     
      24 1.114-4 0.      0.     
  6000     1   566                                                    24
       1 0.      1.133-4 0.     
       2 0.      1.116-4 0.     
       3-7.945-6 1.014-4 0.     
       4 1.074-5 1.013-4 0.     
       5-1.160-5 7.644-5 0.     
       6 1.676-5 7.573-5 0.     
       7-1.073-5 4.576-5 0.     
       8 1.830-5 4.551-5 0.     
       9-5.222-6 1.967-5 0.     
      10 1.546-5 1.838-5 0.     
      11 4.340-6 4.340-6 0.     
      12 7.647-6 6.214-6 0.     
      13 6.214-6 7.647-6 0.     
      14 1.967-5-5.222-6 0.     
      15 5.411-6 5.411-6 0.     
      16 1.838-5 1.546-5 0.     
      17 4.576-5-1.073-5 0.     
      18 4.551-5 1.830-5 0.     
      19 7.644-5-1.160-5 0.     
      20 7.573-5 1.676-5 0.     
      21 1.014-4-7.945-6 0.     
      22 1.013-4 1.074-5 0.     
      23 1.133-4 0.      0.     
      24 1.116-4 0.      0.     
