 LS-DYNA keyword deck by LS-PrePost                                      
                         ls-dyna smp.123264 s           date 01/12/2018


 dt of cycle       1 is controlled by shell             11 of part         1

 time...........................   0.00000E+00
 time step......................   2.82493E-07
 kinetic energy.................   0.00000E+00
 internal energy................   2.00000E-20
 spring and damper energy.......   1.00000E-20
 system damping energy..........   0.00000E+00
 sliding interface energy.......   0.00000E+00
 external work..................   0.00000E+00
 eroded kinetic energy..........   0.00000E+00
 eroded internal energy.........   0.00000E+00
 eroded hourglass energy........   0.00000E+00
 total energy...................   2.00000E-20
 total energy / initial energy..   1.00000E+00
 energy ratio w/o eroded energy.   1.00000E+00
 global x velocity..............   0.00000E+00
 global y velocity..............   0.00000E+00
 global z velocity..............   0.00000E+00
 time per zone cycle.(nanosec)..             0


 dt of cycle      18 is controlled by shell             11 of part         1

 time...........................   4.80239E-06
 time step......................   2.82493E-07
 kinetic energy.................   5.18302E-12
 internal energy................   4.03997E-12
 spring and damper energy.......   1.00000E-20
 system damping energy..........   0.00000E+00
 sliding interface energy.......   0.00000E+00
 external work..................   9.20682E-12
 eroded kinetic energy..........   0.00000E+00
 eroded internal energy.........   0.00000E+00
 eroded hourglass energy........   0.00000E+00
 total energy...................   9.22300E-12
 total energy / initial energy..   1.00000E+00
 energy ratio w/o eroded energy.   1.00000E+00
 global x velocity..............   2.59681E-03
 global y velocity..............   2.59681E-03
 global z velocity..............   0.00000E+00
 time per zone cycle.(nanosec)..          4808


 dt of cycle      36 is controlled by shell             11 of part         1

 time...........................   9.88727E-06
 time step......................   2.82493E-07
 kinetic energy.................   6.59200E-11
 internal energy................   2.62480E-11
 spring and damper energy.......   1.00000E-20
 system damping energy..........   0.00000E+00
 sliding interface energy.......   0.00000E+00
 external work..................   9.21283E-11
 eroded kinetic energy..........   0.00000E+00
 eroded internal energy.........   0.00000E+00
 eroded hourglass energy........   0.00000E+00
 total energy...................   9.21680E-11
 total energy / initial energy..   1.00000E+00
 energy ratio w/o eroded energy.   1.00000E+00
 global x velocity..............   8.43725E-03
 global y velocity..............   8.43725E-03
 global z velocity..............   0.00000E+00
 time per zone cycle.(nanosec)..          5231


 dt of cycle      54 is controlled by shell             11 of part         1

 time...........................   1.49721E-05
 time step......................   2.82493E-07
 kinetic energy.................   2.23958E-10
 internal energy................   1.80543E-10
 spring and damper energy.......   1.00000E-20
 system damping energy..........   0.00000E+00
 sliding interface energy.......   0.00000E+00
 external work..................   4.04471E-10
 eroded kinetic energy..........   0.00000E+00
 eroded internal energy.........   0.00000E+00
 eroded hourglass energy........   0.00000E+00
 total energy...................   4.04501E-10
 total energy / initial energy..   1.00000E+00
 energy ratio w/o eroded energy.   1.00000E+00
 global x velocity..............   1.52300E-02
 global y velocity..............   1.52300E-02
 global z velocity..............   0.00000E+00
 time per zone cycle.(nanosec)..          5201


 dt of cycle      71 is controlled by shell             11 of part         1

 time...........................   1.97745E-05
 time step......................   2.82493E-07
 kinetic energy.................   3.72296E-10
 internal energy................   6.21610E-10
 spring and damper energy.......   1.00000E-20
 system damping energy..........   0.00000E+00
 sliding interface energy.......   0.00000E+00
 external work..................   9.93901E-10
 eroded kinetic energy..........   0.00000E+00
 eroded internal energy.........   0.00000E+00
 eroded hourglass energy........   0.00000E+00
 total energy...................   9.93907E-10
 total energy / initial energy..   1.00000E+00
 energy ratio w/o eroded energy.   1.00000E+00
 global x velocity..............   2.00036E-02
 global y velocity..............   2.00036E-02
 global z velocity..............   0.00000E+00
 time per zone cycle.(nanosec)..          4722


 dt of cycle      89 is controlled by shell             11 of part         1

 time...........................   2.48594E-05
 time step......................   2.82493E-07
 kinetic energy.................   3.78348E-10
 internal energy................   1.51499E-09
 spring and damper energy.......   1.00000E-20
 system damping energy..........   0.00000E+00
 sliding interface energy.......   0.00000E+00
 external work..................   1.89334E-09
 eroded kinetic energy..........   0.00000E+00
 eroded internal energy.........   0.00000E+00
 eroded hourglass energy........   0.00000E+00
 total energy...................   1.89334E-09
 total energy / initial energy..   1.00000E+00
 energy ratio w/o eroded energy.   1.00000E+00
 global x velocity..............   1.98184E-02
 global y velocity..............   1.98184E-02
 global z velocity..............   0.00000E+00
 time per zone cycle.(nanosec)..          5223


 dt of cycle     107 is controlled by shell             11 of part         1

 time...........................   2.99443E-05
 time step......................   2.82493E-07
 kinetic energy.................   2.26620E-10
 internal energy................   2.66596E-09
 spring and damper energy.......   1.00000E-20
 system damping energy..........   0.00000E+00
 sliding interface energy.......   0.00000E+00
 external work..................   2.89254E-09
 eroded kinetic energy..........   0.00000E+00
 eroded internal energy.........   0.00000E+00
 eroded hourglass energy........   0.00000E+00
 total energy...................   2.89258E-09
 total energy / initial energy..   1.00000E+00
 energy ratio w/o eroded energy.   1.00000E+00
 global x velocity..............   1.54610E-02
 global y velocity..............   1.54610E-02
 global z velocity..............   0.00000E+00
 time per zone cycle.(nanosec)..          5251


 dt of cycle     124 is controlled by shell             11 of part         1

 time...........................   3.47467E-05
 time step......................   2.82493E-07
 kinetic energy.................   7.43965E-11
 internal energy................   3.56150E-09
 spring and damper energy.......   1.00000E-20
 system damping energy..........   0.00000E+00
 sliding interface energy.......   0.00000E+00
 external work..................   3.63586E-09
 eroded kinetic energy..........   0.00000E+00
 eroded internal energy.........   0.00000E+00
 eroded hourglass energy........   0.00000E+00
 total energy...................   3.63590E-09
 total energy / initial energy..   1.00000E+00
 energy ratio w/o eroded energy.   1.00000E+00
 global x velocity..............   9.09557E-03
 global y velocity..............   9.09557E-03
 global z velocity..............   0.00000E+00
 time per zone cycle.(nanosec)..         45601


 dt of cycle     142 is controlled by shell             11 of part         1

 time...........................   3.98316E-05
 time step......................   2.82493E-07
 kinetic energy.................   6.16910E-12
 internal energy................   4.06994E-09
 spring and damper energy.......   1.00000E-20
 system damping energy..........   0.00000E+00
 sliding interface energy.......   0.00000E+00
 external work..................   4.07609E-09
 eroded kinetic energy..........   0.00000E+00
 eroded internal energy.........   0.00000E+00
 eroded hourglass energy........   0.00000E+00
 total energy...................   4.07611E-09
 total energy / initial energy..   1.00000E+00
 energy ratio w/o eroded energy.   1.00000E+00
 global x velocity..............   2.53991E-03
 global y velocity..............   2.53990E-03
 global z velocity..............   0.00000E+00
 time per zone cycle.(nanosec)..          4627


 dt of cycle     160 is controlled by shell             11 of part         1

 time...........................   4.49164E-05
 time step......................   2.82493E-07
 kinetic energy.................   3.15116E-13
 internal energy................   4.21414E-09
 spring and damper energy.......   1.00000E-20
 system damping energy..........   0.00000E+00
 sliding interface energy.......   0.00000E+00
 external work..................   4.21446E-09
 eroded kinetic energy..........   0.00000E+00
 eroded internal energy.........   0.00000E+00
 eroded hourglass energy........   0.00000E+00
 total energy...................   4.21446E-09
 total energy / initial energy..   1.00000E+00
 energy ratio w/o eroded energy.   1.00000E+00
 global x velocity..............   2.97566E-04
 global y velocity..............   2.97569E-04
 global z velocity..............   0.00000E+00
 time per zone cycle.(nanosec)..          5233


 dt of cycle     177 is controlled by shell             11 of part         1

 time...........................   4.97188E-05
 time step......................   2.82493E-07
 kinetic energy.................   4.67386E-12
 internal energy................   4.31035E-09
 spring and damper energy.......   1.00000E-20
 system damping energy..........   0.00000E+00
 sliding interface energy.......   0.00000E+00
 external work..................   4.31500E-09
 eroded kinetic energy..........   0.00000E+00
 eroded internal energy.........   0.00000E+00
 eroded hourglass energy........   0.00000E+00
 total energy...................   4.31502E-09
 total energy / initial energy..   1.00000E+00
 energy ratio w/o eroded energy.   1.00000E+00
 global x velocity..............   2.40175E-03
 global y velocity..............   2.40174E-03
 global z velocity..............   0.00000E+00
 time per zone cycle.(nanosec)..          4759


 dt of cycle     195 is controlled by shell             11 of part         1

 time...........................   5.48037E-05
 time step......................   2.82493E-07
 kinetic energy.................   6.41866E-11
 internal energy................   4.84302E-09
 spring and damper energy.......   1.00000E-20
 system damping energy..........   0.00000E+00
 sliding interface energy.......   0.00000E+00
 external work..................   4.90717E-09
 eroded kinetic energy..........   0.00000E+00
 eroded internal energy.........   0.00000E+00
 eroded hourglass energy........   0.00000E+00
 total energy...................   4.90720E-09
 total energy / initial energy..   1.00000E+00
 energy ratio w/o eroded energy.   1.00000E+00
 global x velocity..............   8.15917E-03
 global y velocity..............   8.15917E-03
 global z velocity..............   0.00000E+00
 time per zone cycle.(nanosec)..         22892


 dt of cycle     213 is controlled by shell             11 of part         1

 time...........................   5.98886E-05
 time step......................   2.82493E-07
 kinetic energy.................   2.21904E-10
 internal energy................   6.07603E-09
 spring and damper energy.......   1.00000E-20
 system damping energy..........   0.00000E+00
 sliding interface energy.......   0.00000E+00
 external work..................   6.29790E-09
 eroded kinetic energy..........   0.00000E+00
 eroded internal energy.........   0.00000E+00
 eroded hourglass energy........   0.00000E+00
 total energy...................   6.29793E-09
 total energy / initial energy..   1.00000E+00
 energy ratio w/o eroded energy.   1.00000E+00
 global x velocity..............   1.54962E-02
 global y velocity..............   1.54962E-02
 global z velocity..............   0.00000E+00
 time per zone cycle.(nanosec)..         57430


 dt of cycle     231 is controlled by shell             11 of part         1

 time...........................   6.49735E-05
 time step......................   2.82493E-07
 kinetic energy.................   3.75842E-10
 internal energy................   8.14403E-09
 spring and damper energy.......   1.00000E-20
 system damping energy..........   0.00000E+00
 sliding interface energy.......   0.00000E+00
 external work..................   8.51987E-09
 eroded kinetic energy..........   0.00000E+00
 eroded internal energy.........   0.00000E+00
 eroded hourglass energy........   0.00000E+00
 total energy...................   8.51987E-09
 total energy / initial energy..   1.00000E+00
 energy ratio w/o eroded energy.   1.00000E+00
 global x velocity..............   1.98643E-02
 global y velocity..............   1.98643E-02
 global z velocity..............   0.00000E+00
 time per zone cycle.(nanosec)..          5127


 dt of cycle     248 is controlled by shell             11 of part         1

 time...........................   6.97759E-05
 time step......................   2.82493E-07
 kinetic energy.................   3.79603E-10
 internal energy................   1.07532E-08
 spring and damper energy.......   1.00000E-20
 system damping energy..........   0.00000E+00
 sliding interface energy.......   0.00000E+00
 external work..................   1.11328E-08
 eroded kinetic energy..........   0.00000E+00
 eroded internal energy.........   0.00000E+00
 eroded hourglass energy........   0.00000E+00
 total energy...................   1.11328E-08
 total energy / initial energy..   1.00000E+00
 energy ratio w/o eroded energy.   1.00000E+00
 global x velocity..............   1.98740E-02
 global y velocity..............   1.98740E-02
 global z velocity..............   0.00000E+00
 time per zone cycle.(nanosec)..         18187


 dt of cycle     266 is controlled by shell             11 of part         1

 time...........................   7.48607E-05
 time step......................   2.82493E-07
 kinetic energy.................   2.29721E-10
 internal energy................   1.35058E-08
 spring and damper energy.......   1.00000E-20
 system damping energy..........   0.00000E+00
 sliding interface energy.......   0.00000E+00
 external work..................   1.37354E-08
 eroded kinetic energy..........   0.00000E+00
 eroded internal energy.........   0.00000E+00
 eroded hourglass energy........   0.00000E+00
 total energy...................   1.37355E-08
 total energy / initial energy..   1.00000E+00
 energy ratio w/o eroded energy.   1.00000E+00
 global x velocity..............   1.58025E-02
 global y velocity..............   1.58025E-02
 global z velocity..............   0.00000E+00
 time per zone cycle.(nanosec)..         76714


 dt of cycle     284 is controlled by shell             11 of part         1

 time...........................   7.99456E-05
 time step......................   2.82493E-07
 kinetic energy.................   6.89912E-11
 internal energy................   1.55630E-08
 spring and damper energy.......   1.00000E-20
 system damping energy..........   0.00000E+00
 sliding interface energy.......   0.00000E+00
 external work..................   1.56320E-08
 eroded kinetic energy..........   0.00000E+00
 eroded internal energy.........   0.00000E+00
 eroded hourglass energy........   0.00000E+00
 total energy...................   1.56320E-08
 total energy / initial energy..   1.00000E+00
 energy ratio w/o eroded energy.   1.00000E+00
 global x velocity..............   8.46898E-03
 global y velocity..............   8.46898E-03
 global z velocity..............   0.00000E+00
 time per zone cycle.(nanosec)..         19188


 dt of cycle     301 is controlled by shell             11 of part         1

 time...........................   8.47480E-05
 time step......................   2.82493E-07
 kinetic energy.................   6.71775E-12
 internal energy................   1.65641E-08
 spring and damper energy.......   1.00000E-20
 system damping energy..........   0.00000E+00
 sliding interface energy.......   0.00000E+00
 external work..................   1.65708E-08
 eroded kinetic energy..........   0.00000E+00
 eroded internal energy.........   0.00000E+00
 eroded hourglass energy........   0.00000E+00
 total energy...................   1.65709E-08
 total energy / initial energy..   1.00000E+00
 energy ratio w/o eroded energy.   1.00000E+00
 global x velocity..............   2.84205E-03
 global y velocity..............   2.84206E-03
 global z velocity..............   0.00000E+00
 time per zone cycle.(nanosec)..          4830


 dt of cycle     319 is controlled by shell             11 of part         1

 time...........................   8.98329E-05
 time step......................   2.82493E-07
 kinetic energy.................   4.25847E-13
 internal energy................   1.67997E-08
 spring and damper energy.......   1.00000E-20
 system damping energy..........   0.00000E+00
 sliding interface energy.......   0.00000E+00
 external work..................   1.68001E-08
 eroded kinetic energy..........   0.00000E+00
 eroded internal energy.........   0.00000E+00
 eroded hourglass energy........   0.00000E+00
 total energy...................   1.68001E-08
 total energy / initial energy..   1.00000E+00
 energy ratio w/o eroded energy.   1.00000E+00
 global x velocity..............   3.71670E-04
 global y velocity..............   3.71683E-04
 global z velocity..............   0.00000E+00
 time per zone cycle.(nanosec)..          4848


 dt of cycle     337 is controlled by shell             11 of part         1

 time...........................   9.49177E-05
 time step......................   2.82493E-07
 kinetic energy.................   5.23949E-12
 internal energy................   1.70695E-08
 spring and damper energy.......   1.00000E-20
 system damping energy..........   0.00000E+00
 sliding interface energy.......   0.00000E+00
 external work..................   1.70747E-08
 eroded kinetic energy..........   0.00000E+00
 eroded internal energy.........   0.00000E+00
 eroded hourglass energy........   0.00000E+00
 total energy...................   1.70747E-08
 total energy / initial energy..   1.00000E+00
 energy ratio w/o eroded energy.   1.00000E+00
 global x velocity..............   2.32228E-03
 global y velocity..............   2.32227E-03
 global z velocity..............   0.00000E+00
 time per zone cycle.(nanosec)..          5199


 dt of cycle     354 is controlled by shell             11 of part         1

 time...........................   9.97201E-05
 time step......................   2.82493E-07
 kinetic energy.................   6.30985E-11
 internal energy................   1.80504E-08
 spring and damper energy.......   1.00000E-20
 system damping energy..........   0.00000E+00
 sliding interface energy.......   0.00000E+00
 external work..................   1.81135E-08
 eroded kinetic energy..........   0.00000E+00
 eroded internal energy.........   0.00000E+00
 eroded hourglass energy........   0.00000E+00
 total energy...................   1.81135E-08
 total energy / initial energy..   1.00000E+00
 energy ratio w/o eroded energy.   1.00000E+00
 global x velocity..............   8.42852E-03
 global y velocity..............   8.42855E-03
 global z velocity..............   0.00000E+00
 time per zone cycle.(nanosec)..         18175


 dt of cycle     372 is controlled by shell             11 of part         1

 time...........................   1.04805E-04
 time step......................   2.82493E-07
 kinetic energy.................   2.18940E-10
 internal energy................   2.03061E-08
 spring and damper energy.......   1.00000E-20
 system damping energy..........   0.00000E+00
 sliding interface energy.......   0.00000E+00
 external work..................   2.05250E-08
 eroded kinetic energy..........   0.00000E+00
 eroded internal energy.........   0.00000E+00
 eroded hourglass energy........   0.00000E+00
 total energy...................   2.05251E-08
 total energy / initial energy..   1.00000E+00
 energy ratio w/o eroded energy.   1.00000E+00
 global x velocity..............   1.52127E-02
 global y velocity..............   1.52127E-02
 global z velocity..............   0.00000E+00
 time per zone cycle.(nanosec)..          4767


 dt of cycle     390 is controlled by shell             11 of part         1

 time...........................   1.09890E-04
 time step......................   2.82493E-07
 kinetic energy.................   3.74404E-10
 internal energy................   2.40358E-08
 spring and damper energy.......   1.00000E-20
 system damping energy..........   0.00000E+00
 sliding interface energy.......   0.00000E+00
 external work..................   2.44102E-08
 eroded kinetic energy..........   0.00000E+00
 eroded internal energy.........   0.00000E+00
 eroded hourglass energy........   0.00000E+00
 total energy...................   2.44102E-08
 total energy / initial energy..   1.00000E+00
 energy ratio w/o eroded energy.   1.00000E+00
 global x velocity..............   1.96869E-02
 global y velocity..............   1.96869E-02
 global z velocity..............   0.00000E+00
 time per zone cycle.(nanosec)..          5183


 dt of cycle     408 is controlled by shell             11 of part         1

 time...........................   1.14975E-04
 time step......................   2.82493E-07
 kinetic energy.................   3.76372E-10
 internal energy................   2.85838E-08
 spring and damper energy.......   1.00000E-20
 system damping energy..........   0.00000E+00
 sliding interface energy.......   0.00000E+00
 external work..................   2.89602E-08
 eroded kinetic energy..........   0.00000E+00
 eroded internal energy.........   0.00000E+00
 eroded hourglass energy........   0.00000E+00
 total energy...................   2.89602E-08
 total energy / initial energy..   1.00000E+00
 energy ratio w/o eroded energy.   1.00000E+00
 global x velocity..............   2.00846E-02
 global y velocity..............   2.00846E-02
 global z velocity..............   0.00000E+00
 time per zone cycle.(nanosec)..         33328


 dt of cycle     425 is controlled by shell             11 of part         1

 time...........................   1.19777E-04
 time step......................   2.82493E-07
 kinetic energy.................   2.31722E-10
 internal energy................   3.27050E-08
 spring and damper energy.......   1.00000E-20
 system damping energy..........   0.00000E+00
 sliding interface energy.......   0.00000E+00
 external work..................   3.29367E-08
 eroded kinetic energy..........   0.00000E+00
 eroded internal energy.........   0.00000E+00
 eroded hourglass energy........   0.00000E+00
 total energy...................   3.29367E-08
 total energy / initial energy..   1.00000E+00
 energy ratio w/o eroded energy.   1.00000E+00
 global x velocity..............   1.55553E-02
 global y velocity..............   1.55553E-02
 global z velocity..............   0.00000E+00
 time per zone cycle.(nanosec)..          4606


 dt of cycle     443 is controlled by shell             11 of part         1

 time...........................   1.24862E-04
 time step......................   2.82493E-07
 kinetic energy.................   7.06955E-11
 internal energy................   3.59595E-08
 spring and damper energy.......   1.00000E-20
 system damping energy..........   0.00000E+00
 sliding interface energy.......   0.00000E+00
 external work..................   3.60301E-08
 eroded kinetic energy..........   0.00000E+00
 eroded internal energy.........   0.00000E+00
 eroded hourglass energy........   0.00000E+00
 total energy...................   3.60302E-08
 total energy / initial energy..   1.00000E+00
 energy ratio w/o eroded energy.   1.00000E+00
 global x velocity..............   8.69246E-03
 global y velocity..............   8.69241E-03
 global z velocity..............   0.00000E+00
 time per zone cycle.(nanosec)..         14336


 dt of cycle     461 is controlled by shell             11 of part         1

 time...........................   1.29947E-04
 time step......................   2.82493E-07
 kinetic energy.................   6.12145E-12
 internal energy................   3.74510E-08
 spring and damper energy.......   1.00000E-20
 system damping energy..........   0.00000E+00
 sliding interface energy.......   0.00000E+00
 external work..................   3.74571E-08
 eroded kinetic energy..........   0.00000E+00
 eroded internal energy.........   0.00000E+00
 eroded hourglass energy........   0.00000E+00
 total energy...................   3.74571E-08
 total energy / initial energy..   1.00000E+00
 energy ratio w/o eroded energy.   1.00000E+00
 global x velocity..............   2.79752E-03
 global y velocity..............   2.79759E-03
 global z velocity..............   0.00000E+00
 time per zone cycle.(nanosec)..         76071


 dt of cycle     478 is controlled by shell             11 of part         1

 time...........................   1.34749E-04
 time step......................   2.82493E-07
 kinetic energy.................   1.55654E-14
 internal energy................   3.78265E-08
 spring and damper energy.......   1.00000E-20
 system damping energy..........   0.00000E+00
 sliding interface energy.......   0.00000E+00
 external work..................   3.78265E-08
 eroded kinetic energy..........   0.00000E+00
 eroded internal energy.........   0.00000E+00
 eroded hourglass energy........   0.00000E+00
 total energy...................   3.78266E-08
 total energy / initial energy..   1.00000E+00
 energy ratio w/o eroded energy.   1.00000E+00
 global x velocity..............   2.47743E-05
 global y velocity..............   2.47310E-05
 global z velocity..............   0.00000E+00
 time per zone cycle.(nanosec)..          4611


 dt of cycle     496 is controlled by shell             11 of part         1

 time...........................   1.39834E-04
 time step......................   2.82493E-07
 kinetic energy.................   5.24732E-12
 internal energy................   3.82404E-08
 spring and damper energy.......   1.00000E-20
 system damping energy..........   0.00000E+00
 sliding interface energy.......   0.00000E+00
 external work..................   3.82456E-08
 eroded kinetic energy..........   0.00000E+00
 eroded internal energy.........   0.00000E+00
 eroded hourglass energy........   0.00000E+00
 total energy...................   3.82457E-08
 total energy / initial energy..   1.00000E+00
 energy ratio w/o eroded energy.   1.00000E+00
 global x velocity..............   2.53411E-03
 global y velocity..............   2.53412E-03
 global z velocity..............   0.00000E+00
 time per zone cycle.(nanosec)..          4602


 dt of cycle     514 is controlled by shell             11 of part         1

 time...........................   1.44919E-04
 time step......................   2.82493E-07
 kinetic energy.................   6.76349E-11
 internal energy................   3.97210E-08
 spring and damper energy.......   1.00000E-20
 system damping energy..........   0.00000E+00
 sliding interface energy.......   0.00000E+00
 external work..................   3.97886E-08
 eroded kinetic energy..........   0.00000E+00
 eroded internal energy.........   0.00000E+00
 eroded hourglass energy........   0.00000E+00
 total energy...................   3.97887E-08
 total energy / initial energy..   1.00000E+00
 energy ratio w/o eroded energy.   1.00000E+00
 global x velocity..............   8.67024E-03
 global y velocity..............   8.67025E-03
 global z velocity..............   0.00000E+00
 time per zone cycle.(nanosec)..          5215


 dt of cycle     531 is controlled by shell             11 of part         1

 time...........................   1.49721E-04
 time step......................   2.82493E-07
 kinetic energy.................   2.16177E-10
 internal energy................   4.29797E-08
 spring and damper energy.......   1.00000E-20
 system damping energy..........   0.00000E+00
 sliding interface energy.......   0.00000E+00
 external work..................   4.31958E-08
 eroded kinetic energy..........   0.00000E+00
 eroded internal energy.........   0.00000E+00
 eroded hourglass energy........   0.00000E+00
 total energy...................   4.31959E-08
 total energy / initial energy..   1.00000E+00
 energy ratio w/o eroded energy.   1.00000E+00
 global x velocity..............   1.49323E-02
 global y velocity..............   1.49323E-02
 global z velocity..............   0.00000E+00
 time per zone cycle.(nanosec)..         70104


 dt of cycle     549 is controlled by shell             11 of part         1

 time...........................   1.54806E-04
 time step......................   2.82493E-07
 kinetic energy.................   3.73540E-10
 internal energy................   4.82584E-08
 spring and damper energy.......   1.00000E-20
 system damping energy..........   0.00000E+00
 sliding interface energy.......   0.00000E+00
 external work..................   4.86319E-08
 eroded kinetic energy..........   0.00000E+00
 eroded internal energy.........   0.00000E+00
 eroded hourglass energy........   0.00000E+00
 total energy...................   4.86319E-08
 total energy / initial energy..   1.00000E+00
 energy ratio w/o eroded energy.   1.00000E+00
 global x velocity..............   2.00126E-02
 global y velocity..............   2.00126E-02
 global z velocity..............   0.00000E+00
 time per zone cycle.(nanosec)..          4777


 dt of cycle     567 is controlled by shell             11 of part         1

 time...........................   1.59891E-04
 time step......................   2.82493E-07
 kinetic energy.................   3.77203E-10
 internal energy................   5.45745E-08
 spring and damper energy.......   1.00000E-20
 system damping energy..........   0.00000E+00
 sliding interface energy.......   0.00000E+00
 external work..................   5.49517E-08
 eroded kinetic energy..........   0.00000E+00
 eroded internal energy.........   0.00000E+00
 eroded hourglass energy........   0.00000E+00
 total energy...................   5.49517E-08
 total energy / initial energy..   1.00000E+00
 energy ratio w/o eroded energy.   1.00000E+00
 global x velocity..............   1.98888E-02
 global y velocity..............   1.98887E-02
 global z velocity..............   0.00000E+00
 time per zone cycle.(nanosec)..          5061


 dt of cycle     585 is controlled by shell             11 of part         1

 time...........................   1.64976E-04
 time step......................   2.82493E-07
 kinetic energy.................   2.24060E-10
 internal energy................   6.06436E-08
 spring and damper energy.......   1.00000E-20
 system damping energy..........   0.00000E+00
 sliding interface energy.......   0.00000E+00
 external work..................   6.08676E-08
 eroded kinetic energy..........   0.00000E+00
 eroded internal energy.........   0.00000E+00
 eroded hourglass energy........   0.00000E+00
 total energy...................   6.08677E-08
 total energy / initial energy..   1.00000E+00
 energy ratio w/o eroded energy.   1.00000E+00
 global x velocity..............   1.52497E-02
 global y velocity..............   1.52497E-02
 global z velocity..............   0.00000E+00
 time per zone cycle.(nanosec)..          5171


 dt of cycle     602 is controlled by shell             11 of part         1

 time...........................   1.69778E-04
 time step......................   2.82493E-07
 kinetic energy.................   7.28905E-11
 internal energy................   6.46643E-08
 spring and damper energy.......   1.00000E-20
 system damping energy..........   0.00000E+00
 sliding interface energy.......   0.00000E+00
 external work..................   6.47371E-08
 eroded kinetic energy..........   0.00000E+00
 eroded internal energy.........   0.00000E+00
 eroded hourglass energy........   0.00000E+00
 total energy...................   6.47372E-08
 total energy / initial energy..   1.00000E+00
 energy ratio w/o eroded energy.   1.00000E+00
 global x velocity..............   9.06687E-03
 global y velocity..............   9.06678E-03
 global z velocity..............   0.00000E+00
 time per zone cycle.(nanosec)..          5983


 dt of cycle     620 is controlled by shell             11 of part         1

 time...........................   1.74863E-04
 time step......................   2.82493E-07
 kinetic energy.................   5.87140E-12
 internal energy................   6.67263E-08
 spring and damper energy.......   1.00000E-20
 system damping energy..........   0.00000E+00
 sliding interface energy.......   0.00000E+00
 external work..................   6.67321E-08
 eroded kinetic energy..........   0.00000E+00
 eroded internal energy.........   0.00000E+00
 eroded hourglass energy........   0.00000E+00
 total energy...................   6.67321E-08
 total energy / initial energy..   1.00000E+00
 energy ratio w/o eroded energy.   1.00000E+00
 global x velocity..............   2.50604E-03
 global y velocity..............   2.50613E-03
 global z velocity..............   0.00000E+00
 time per zone cycle.(nanosec)..          5188


 dt of cycle     638 is controlled by shell             11 of part         1

 time...........................   1.79948E-04
 time step......................   2.82493E-07
 kinetic energy.................   1.35938E-13
 internal energy................   6.73235E-08
 spring and damper energy.......   1.00000E-20
 system damping energy..........   0.00000E+00
 sliding interface energy.......   0.00000E+00
 external work..................   6.73236E-08
 eroded kinetic energy..........   0.00000E+00
 eroded internal energy.........   0.00000E+00
 eroded hourglass energy........   0.00000E+00
 total energy...................   6.73237E-08
 total energy / initial energy..   1.00000E+00
 energy ratio w/o eroded energy.   1.00000E+00
 global x velocity..............   2.16470E-04
 global y velocity..............   2.16347E-04
 global z velocity..............   0.00000E+00
 time per zone cycle.(nanosec)..         14310


 dt of cycle     655 is controlled by shell             11 of part         1

 time...........................   1.84751E-04
 time step......................   2.82493E-07
 kinetic energy.................   5.12513E-12
 internal energy................   6.77164E-08
 spring and damper energy.......   1.00000E-20
 system damping energy..........   0.00000E+00
 sliding interface energy.......   0.00000E+00
 external work..................   6.77215E-08
 eroded kinetic energy..........   0.00000E+00
 eroded internal energy.........   0.00000E+00
 eroded hourglass energy........   0.00000E+00
 total energy...................   6.77215E-08
 total energy / initial energy..   1.00000E+00
 energy ratio w/o eroded energy.   1.00000E+00
 global x velocity..............   2.55620E-03
 global y velocity..............   2.55626E-03
 global z velocity..............   0.00000E+00
 time per zone cycle.(nanosec)..          4780


 dt of cycle     673 is controlled by shell             11 of part         1

 time...........................   1.89835E-04
 time step......................   2.82493E-07
 kinetic energy.................   6.56947E-11
 internal energy................   6.97591E-08
 spring and damper energy.......   1.00000E-20
 system damping energy..........   0.00000E+00
 sliding interface energy.......   0.00000E+00
 external work..................   6.98247E-08
 eroded kinetic energy..........   0.00000E+00
 eroded internal energy.........   0.00000E+00
 eroded hourglass energy........   0.00000E+00
 total energy...................   6.98248E-08
 total energy / initial energy..   1.00000E+00
 energy ratio w/o eroded energy.   1.00000E+00
 global x velocity..............   8.24182E-03
 global y velocity..............   8.24179E-03
 global z velocity..............   0.00000E+00
 time per zone cycle.(nanosec)..          5226


 dt of cycle     691 is controlled by shell             11 of part         1

 time...........................   1.94920E-04
 time step......................   2.82493E-07
 kinetic energy.................   2.24191E-10
 internal energy................   7.43295E-08
 spring and damper energy.......   1.00000E-20
 system damping energy..........   0.00000E+00
 sliding interface energy.......   0.00000E+00
 external work..................   7.45536E-08
 eroded kinetic energy..........   0.00000E+00
 eroded internal energy.........   0.00000E+00
 eroded hourglass energy........   0.00000E+00
 total energy...................   7.45537E-08
 total energy / initial energy..   1.00000E+00
 energy ratio w/o eroded energy.   1.00000E+00
 global x velocity..............   1.55112E-02
 global y velocity..............   1.55113E-02
 global z velocity..............   0.00000E+00
 time per zone cycle.(nanosec)..         76205


 dt of cycle     708 is controlled by shell             11 of part         1

 time...........................   1.99723E-04
 time step......................   2.82493E-07
 kinetic energy.................   3.71781E-10
 internal energy................   8.07729E-08
 spring and damper energy.......   1.00000E-20
 system damping energy..........   0.00000E+00
 sliding interface energy.......   0.00000E+00
 external work..................   8.11447E-08
 eroded kinetic energy..........   0.00000E+00
 eroded internal energy.........   0.00000E+00
 eroded hourglass energy........   0.00000E+00
 total energy...................   8.11447E-08
 total energy / initial energy..   1.00000E+00
 energy ratio w/o eroded energy.   1.00000E+00
 global x velocity..............   1.97887E-02
 global y velocity..............   1.97887E-02
 global z velocity..............   0.00000E+00
 time per zone cycle.(nanosec)..         33740


 dt of cycle     726 is controlled by shell             11 of part         1

 time...........................   2.04808E-04
 time step......................   2.82493E-07
 kinetic energy.................   3.78359E-10
 internal energy................   8.90396E-08
 spring and damper energy.......   1.00000E-20
 system damping energy..........   0.00000E+00
 sliding interface energy.......   0.00000E+00
 external work..................   8.94180E-08
 eroded kinetic energy..........   0.00000E+00
 eroded internal energy.........   0.00000E+00
 eroded hourglass energy........   0.00000E+00
 total energy...................   8.94180E-08
 total energy / initial energy..   1.00000E+00
 energy ratio w/o eroded energy.   1.00000E+00
 global x velocity..............   1.97830E-02
 global y velocity..............   1.97831E-02
 global z velocity..............   0.00000E+00
 time per zone cycle.(nanosec)..          4804


 dt of cycle     744 is controlled by shell             11 of part         1

 time...........................   2.09892E-04
 time step......................   2.82493E-07
 kinetic energy.................   2.27202E-10
 internal energy................   9.66712E-08
 spring and damper energy.......   1.00000E-20
 system damping energy..........   0.00000E+00
 sliding interface energy.......   0.00000E+00
 external work..................   9.68984E-08
 eroded kinetic energy..........   0.00000E+00
 eroded internal energy.........   0.00000E+00
 eroded hourglass energy........   0.00000E+00
 total energy...................   9.68984E-08
 total energy / initial energy..   1.00000E+00
 energy ratio w/o eroded energy.   1.00000E+00
 global x velocity..............   1.56853E-02
 global y velocity..............   1.56852E-02
 global z velocity..............   0.00000E+00
 time per zone cycle.(nanosec)..          5249


 dt of cycle     762 is controlled by shell             11 of part         1

 time...........................   2.14977E-04
 time step......................   2.82493E-07
 kinetic energy.................   6.74914E-11
 internal energy................   1.01967E-07
 spring and damper energy.......   1.00000E-20
 system damping energy..........   0.00000E+00
 sliding interface energy.......   0.00000E+00
 external work..................   1.02034E-07
 eroded kinetic energy..........   0.00000E+00
 eroded internal energy.........   0.00000E+00
 eroded hourglass energy........   0.00000E+00
 total energy...................   1.02034E-07
 total energy / initial energy..   1.00000E+00
 energy ratio w/o eroded energy.   1.00000E+00
 global x velocity..............   8.49944E-03
 global y velocity..............   8.49942E-03
 global z velocity..............   0.00000E+00
 time per zone cycle.(nanosec)..         87006


 dt of cycle     779 is controlled by shell             11 of part         1

 time...........................   2.19780E-04
 time step......................   2.82493E-07
 kinetic energy.................   6.24770E-12
 internal energy................   1.04496E-07
 spring and damper energy.......   1.00000E-20
 system damping energy..........   0.00000E+00
 sliding interface energy.......   0.00000E+00
 external work..................   1.04503E-07
 eroded kinetic energy..........   0.00000E+00
 eroded internal energy.........   0.00000E+00
 eroded hourglass energy........   0.00000E+00
 total energy...................   1.04503E-07
 total energy / initial energy..   1.00000E+00
 energy ratio w/o eroded energy.   1.00000E+00
 global x velocity..............   2.66665E-03
 global y velocity..............   2.66664E-03
 global z velocity..............   0.00000E+00
 time per zone cycle.(nanosec)..          4815


 dt of cycle     797 is controlled by shell             11 of part         1

 time...........................   2.24865E-04
 time step......................   2.82493E-07
 kinetic energy.................   5.84695E-13
 internal energy................   1.05101E-07
 spring and damper energy.......   1.00000E-20
 system damping energy..........   0.00000E+00
 sliding interface energy.......   0.00000E+00
 external work..................   1.05102E-07
 eroded kinetic energy..........   0.00000E+00
 eroded internal energy.........   0.00000E+00
 eroded hourglass energy........   0.00000E+00
 total energy...................   1.05102E-07
 total energy / initial energy..   1.00000E+00
 energy ratio w/o eroded energy.   1.00000E+00
 global x velocity..............   4.22339E-04
 global y velocity..............   4.22185E-04
 global z velocity..............   0.00000E+00
 time per zone cycle.(nanosec)..          5234


 dt of cycle     815 is controlled by shell             11 of part         1

 time...........................   2.29950E-04
 time step......................   2.82493E-07
 kinetic energy.................   5.53881E-12
 internal energy................   1.05737E-07
 spring and damper energy.......   1.00000E-20
 system damping energy..........   0.00000E+00
 sliding interface energy.......   0.00000E+00
 external work..................   1.05742E-07
 eroded kinetic energy..........   0.00000E+00
 eroded internal energy.........   0.00000E+00
 eroded hourglass energy........   0.00000E+00
 total energy...................   1.05742E-07
 total energy / initial energy..   1.00000E+00
 energy ratio w/o eroded energy.   1.00000E+00
 global x velocity..............   2.41466E-03
 global y velocity..............   2.41475E-03
 global z velocity..............   0.00000E+00
 time per zone cycle.(nanosec)..         62351


 dt of cycle     832 is controlled by shell             11 of part         1

 time...........................   2.34752E-04
 time step......................   2.82493E-07
 kinetic energy.................   6.43932E-11
 internal energy................   1.08223E-07
 spring and damper energy.......   1.00000E-20
 system damping energy..........   0.00000E+00
 sliding interface energy.......   0.00000E+00
 external work..................   1.08287E-07
 eroded kinetic energy..........   0.00000E+00
 eroded internal energy.........   0.00000E+00
 eroded hourglass energy........   0.00000E+00
 total energy...................   1.08287E-07
 total energy / initial energy..   1.00000E+00
 energy ratio w/o eroded energy.   1.00000E+00
 global x velocity..............   8.40005E-03
 global y velocity..............   8.39998E-03
 global z velocity..............   0.00000E+00
 time per zone cycle.(nanosec)..          4793


 dt of cycle     850 is controlled by shell             11 of part         1

 time...........................   2.39837E-04
 time step......................   2.82493E-07
 kinetic energy.................   2.21596E-10
 internal energy................   1.13693E-07
 spring and damper energy.......   1.00000E-20
 system damping energy..........   0.00000E+00
 sliding interface energy.......   0.00000E+00
 external work..................   1.13915E-07
 eroded kinetic energy..........   0.00000E+00
 eroded internal energy.........   0.00000E+00
 eroded hourglass energy........   0.00000E+00
 total energy...................   1.13915E-07
 total energy / initial energy..   1.00000E+00
 energy ratio w/o eroded energy.   1.00000E+00
 global x velocity..............   1.54432E-02
 global y velocity..............   1.54433E-02
 global z velocity..............   0.00000E+00
 time per zone cycle.(nanosec)..          4804


 dt of cycle     868 is controlled by shell             11 of part         1

 time...........................   2.44922E-04
 time step......................   2.82493E-07
 kinetic energy.................   3.75651E-10
 internal energy................   1.22298E-07
 spring and damper energy.......   1.00000E-20
 system damping energy..........   0.00000E+00
 sliding interface energy.......   0.00000E+00
 external work..................   1.22673E-07
 eroded kinetic energy..........   0.00000E+00
 eroded internal energy.........   0.00000E+00
 eroded hourglass energy........   0.00000E+00
 total energy...................   1.22673E-07
 total energy / initial energy..   1.00000E+00
 energy ratio w/o eroded energy.   1.00000E+00
 global x velocity..............   1.96744E-02
 global y velocity..............   1.96744E-02
 global z velocity..............   0.00000E+00
 time per zone cycle.(nanosec)..          5256


 dt of cycle     885 is controlled by shell             11 of part         1

 time...........................   2.49724E-04
 time step......................   2.82493E-07
 kinetic energy.................   3.80097E-10
 internal energy................   1.31801E-07
 spring and damper energy.......   1.00000E-20
 system damping energy..........   0.00000E+00
 sliding interface energy.......   0.00000E+00
 external work..................   1.32182E-07
 eroded kinetic energy..........   0.00000E+00
 eroded internal energy.........   0.00000E+00
 eroded hourglass energy........   0.00000E+00
 total energy...................   1.32182E-07
 total energy / initial energy..   1.00000E+00
 energy ratio w/o eroded energy.   1.00000E+00
 global x velocity..............   2.01798E-02
 global y velocity..............   2.01799E-02
 global z velocity..............   0.00000E+00
 time per zone cycle.(nanosec)..          4766


 dt of cycle     903 is controlled by shell             11 of part         1

 time...........................   2.54809E-04
 time step......................   2.82493E-07
 kinetic energy.................   2.29337E-10
 internal energy................   1.41003E-07
 spring and damper energy.......   1.00000E-20
 system damping energy..........   0.00000E+00
 sliding interface energy.......   0.00000E+00
 external work..................   1.41232E-07
 eroded kinetic energy..........   0.00000E+00
 eroded internal energy.........   0.00000E+00
 eroded hourglass energy........   0.00000E+00
 total energy...................   1.41232E-07
 total energy / initial energy..   1.00000E+00
 energy ratio w/o eroded energy.   1.00000E+00
 global x velocity..............   1.55476E-02
 global y velocity..............   1.55477E-02
 global z velocity..............   0.00000E+00
 time per zone cycle.(nanosec)..          4826


 dt of cycle     921 is controlled by shell             11 of part         1

 time...........................   2.59894E-04
 time step......................   2.82493E-07
 kinetic energy.................   6.90652E-11
 internal energy................   1.47620E-07
 spring and damper energy.......   1.00000E-20
 system damping energy..........   0.00000E+00
 sliding interface energy.......   0.00000E+00
 external work..................   1.47689E-07
 eroded kinetic energy..........   0.00000E+00
 eroded internal energy.........   0.00000E+00
 eroded hourglass energy........   0.00000E+00
 total energy...................   1.47689E-07
 total energy / initial energy..   1.00000E+00
 energy ratio w/o eroded energy.   1.00000E+00
 global x velocity..............   8.49397E-03
 global y velocity..............   8.49407E-03
 global z velocity..............   0.00000E+00
 time per zone cycle.(nanosec)..          5168


 dt of cycle     939 is controlled by shell             11 of part         1

 time...........................   2.64979E-04
 time step......................   2.82493E-07
 kinetic energy.................   5.86873E-12
 internal energy................   1.50639E-07
 spring and damper energy.......   1.00000E-20
 system damping energy..........   0.00000E+00
 sliding interface energy.......   0.00000E+00
 external work..................   1.50645E-07
 eroded kinetic energy..........   0.00000E+00
 eroded internal energy.........   0.00000E+00
 eroded hourglass energy........   0.00000E+00
 total energy...................   1.50645E-07
 total energy / initial energy..   1.00000E+00
 energy ratio w/o eroded energy.   1.00000E+00
 global x velocity..............   2.75745E-03
 global y velocity..............   2.75746E-03
 global z velocity..............   0.00000E+00
 time per zone cycle.(nanosec)..         38234


 dt of cycle     956 is controlled by shell             11 of part         1

 time...........................   2.69781E-04
 time step......................   2.82493E-07
 kinetic energy.................   1.85626E-14
 internal energy................   1.51320E-07
 spring and damper energy.......   1.00000E-20
 system damping energy..........   0.00000E+00
 sliding interface energy.......   0.00000E+00
 external work..................   1.51320E-07
 eroded kinetic energy..........   0.00000E+00
 eroded internal energy.........   0.00000E+00
 eroded hourglass energy........   0.00000E+00
 total energy...................   1.51320E-07
 total energy / initial energy..   1.00000E+00
 energy ratio w/o eroded energy.   1.00000E+00
 global x velocity..............   7.24867E-05
 global y velocity..............   7.25006E-05
 global z velocity..............   0.00000E+00
 time per zone cycle.(nanosec)..         13399


 dt of cycle     974 is controlled by shell             11 of part         1

 time...........................   2.74866E-04
 time step......................   2.82493E-07
 kinetic energy.................   5.34756E-12
 internal energy................   1.52194E-07
 spring and damper energy.......   1.00000E-20
 system damping energy..........   0.00000E+00
 sliding interface energy.......   0.00000E+00
 external work..................   1.52199E-07
 eroded kinetic energy..........   0.00000E+00
 eroded internal energy.........   0.00000E+00
 eroded hourglass energy........   0.00000E+00
 total energy...................   1.52199E-07
 total energy / initial energy..   1.00000E+00
 energy ratio w/o eroded energy.   1.00000E+00
 global x velocity..............   2.52448E-03
 global y velocity..............   2.52446E-03
 global z velocity..............   0.00000E+00
 time per zone cycle.(nanosec)..         19744


 dt of cycle     992 is controlled by shell             11 of part         1

 time...........................   2.79951E-04
 time step......................   2.82493E-07
 kinetic energy.................   6.93773E-11
 internal energy................   1.55191E-07
 spring and damper energy.......   1.00000E-20
 system damping energy..........   0.00000E+00
 sliding interface energy.......   0.00000E+00
 external work..................   1.55260E-07
 eroded kinetic energy..........   0.00000E+00
 eroded internal energy.........   0.00000E+00
 eroded hourglass energy........   0.00000E+00
 total energy...................   1.55260E-07
 total energy / initial energy..   1.00000E+00
 energy ratio w/o eroded energy.   1.00000E+00
 global x velocity..............   8.80837E-03
 global y velocity..............   8.80831E-03
 global z velocity..............   0.00000E+00
 time per zone cycle.(nanosec)..         19143


 dt of cycle    1009 is controlled by shell             11 of part         1

 time...........................   2.84753E-04
 time step......................   2.82493E-07
 kinetic energy.................   2.18654E-10
 internal energy................   1.61550E-07
 spring and damper energy.......   1.00000E-20
 system damping energy..........   0.00000E+00
 sliding interface energy.......   0.00000E+00
 external work..................   1.61769E-07
 eroded kinetic energy..........   0.00000E+00
 eroded internal energy.........   0.00000E+00
 eroded hourglass energy........   0.00000E+00
 total energy...................   1.61769E-07
 total energy / initial energy..   1.00000E+00
 energy ratio w/o eroded energy.   1.00000E+00
 global x velocity..............   1.50239E-02
 global y velocity..............   1.50239E-02
 global z velocity..............   0.00000E+00
 time per zone cycle.(nanosec)..          4796


 dt of cycle    1027 is controlled by shell             11 of part         1

 time...........................   2.89838E-04
 time step......................   2.82493E-07
 kinetic energy.................   3.74652E-10
 internal energy................   1.71750E-07
 spring and damper energy.......   1.00000E-20
 system damping energy..........   0.00000E+00
 sliding interface energy.......   0.00000E+00
 external work..................   1.72124E-07
 eroded kinetic energy..........   0.00000E+00
 eroded internal energy.........   0.00000E+00
 eroded hourglass energy........   0.00000E+00
 total energy...................   1.72124E-07
 total energy / initial energy..   1.00000E+00
 energy ratio w/o eroded energy.   1.00000E+00
 global x velocity..............   1.99469E-02
 global y velocity..............   1.99468E-02
 global z velocity..............   0.00000E+00
 time per zone cycle.(nanosec)..         27320


 dt of cycle    1045 is controlled by shell             11 of part         1

 time...........................   2.94923E-04
 time step......................   2.82493E-07
 kinetic energy.................   3.76093E-10
 internal energy................   1.83476E-07
 spring and damper energy.......   1.00000E-20
 system damping energy..........   0.00000E+00
 sliding interface energy.......   0.00000E+00
 external work..................   1.83852E-07
 eroded kinetic energy..........   0.00000E+00
 eroded internal energy.........   0.00000E+00
 eroded hourglass energy........   0.00000E+00
 total energy...................   1.83852E-07
 total energy / initial energy..   1.00000E+00
 energy ratio w/o eroded energy.   1.00000E+00
 global x velocity..............   1.99733E-02
 global y velocity..............   1.99733E-02
 global z velocity..............   0.00000E+00
 time per zone cycle.(nanosec)..          5247


 dt of cycle    1062 is controlled by shell             11 of part         1

 time...........................   2.99725E-04
 time step......................   2.82493E-07
 kinetic energy.................   2.31789E-10
 internal energy................   1.93883E-07
 spring and damper energy.......   1.00000E-20
 system damping energy..........   0.00000E+00
 sliding interface energy.......   0.00000E+00
 external work..................   1.94115E-07
 eroded kinetic energy..........   0.00000E+00
 eroded internal energy.........   0.00000E+00
 eroded hourglass energy........   0.00000E+00
 total energy...................   1.94115E-07
 total energy / initial energy..   1.00000E+00
 energy ratio w/o eroded energy.   1.00000E+00
 global x velocity..............   1.54862E-02
 global y velocity..............   1.54861E-02
 global z velocity..............   0.00000E+00
 time per zone cycle.(nanosec)..          4642


 dt of cycle    1080 is controlled by shell             11 of part         1

 time...........................   3.04810E-04
 time step......................   2.82493E-07
 kinetic energy.................   7.12516E-11
 internal energy................   2.01553E-07
 spring and damper energy.......   1.00000E-20
 system damping energy..........   0.00000E+00
 sliding interface energy.......   0.00000E+00
 external work..................   2.01624E-07
 eroded kinetic energy..........   0.00000E+00
 eroded internal energy.........   0.00000E+00
 eroded hourglass energy........   0.00000E+00
 total energy...................   2.01624E-07
 total energy / initial energy..   1.00000E+00
 energy ratio w/o eroded energy.   1.00000E+00
 global x velocity..............   8.94093E-03
 global y velocity..............   8.94091E-03
 global z velocity..............   0.00000E+00
 time per zone cycle.(nanosec)..          4794


 dt of cycle    1098 is controlled by shell             11 of part         1

 time...........................   3.09895E-04
 time step......................   2.82493E-07
 kinetic energy.................   5.64554E-12
 internal energy................   2.05068E-07
 spring and damper energy.......   1.00000E-20
 system damping energy..........   0.00000E+00
 sliding interface energy.......   0.00000E+00
 external work..................   2.05074E-07
 eroded kinetic energy..........   0.00000E+00
 eroded internal energy.........   0.00000E+00
 eroded hourglass energy........   0.00000E+00
 total energy...................   2.05074E-07
 total energy / initial energy..   1.00000E+00
 energy ratio w/o eroded energy.   1.00000E+00
 global x velocity..............   2.56246E-03
 global y velocity..............   2.56236E-03
 global z velocity..............   0.00000E+00
 time per zone cycle.(nanosec)..          5212


 dt of cycle    1116 is controlled by shell             11 of part         1

 time...........................   3.14980E-04
 time step......................   2.82493E-07
 kinetic energy.................   3.59927E-14
 internal energy................   2.06104E-07
 spring and damper energy.......   1.00000E-20
 system damping energy..........   0.00000E+00
 sliding interface energy.......   0.00000E+00
 external work..................   2.06103E-07
 eroded kinetic energy..........   0.00000E+00
 eroded internal energy.........   0.00000E+00
 eroded hourglass energy........   0.00000E+00
 total energy...................   2.06104E-07
 total energy / initial energy..   1.00000E+00
 energy ratio w/o eroded energy.   1.00000E+00
 global x velocity..............   8.63959E-05
 global y velocity..............   8.64213E-05
 global z velocity..............   0.00000E+00
 time per zone cycle.(nanosec)..          5228


 dt of cycle    1133 is controlled by shell             11 of part         1

 time...........................   3.19782E-04
 time step......................   2.82493E-07
 kinetic energy.................   5.53380E-12
 internal energy................   2.06868E-07
 spring and damper energy.......   1.00000E-20
 system damping energy..........   0.00000E+00
 sliding interface energy.......   0.00000E+00
 external work..................   2.06873E-07
 eroded kinetic energy..........   0.00000E+00
 eroded internal energy.........   0.00000E+00
 eroded hourglass energy........   0.00000E+00
 total energy...................   2.06873E-07
 total energy / initial energy..   1.00000E+00
 energy ratio w/o eroded energy.   1.00000E+00
 global x velocity..............   2.68876E-03
 global y velocity..............   2.68873E-03
 global z velocity..............   0.00000E+00
 time per zone cycle.(nanosec)..         29605


 dt of cycle    1151 is controlled by shell             11 of part         1

 time...........................   3.24867E-04
 time step......................   2.82493E-07
 kinetic energy.................   6.72433E-11
 internal energy................   2.10405E-07
 spring and damper energy.......   1.00000E-20
 system damping energy..........   0.00000E+00
 sliding interface energy.......   0.00000E+00
 external work..................   2.10472E-07
 eroded kinetic energy..........   0.00000E+00
 eroded internal energy.........   0.00000E+00
 eroded hourglass energy........   0.00000E+00
 total energy...................   2.10472E-07
 total energy / initial energy..   1.00000E+00
 energy ratio w/o eroded energy.   1.00000E+00
 global x velocity..............   8.35056E-03
 global y velocity..............   8.35053E-03
 global z velocity..............   0.00000E+00
 time per zone cycle.(nanosec)..         23830


 dt of cycle    1169 is controlled by shell             11 of part         1

 time...........................   3.29952E-04
 time step......................   2.82493E-07
 kinetic energy.................   2.26481E-10
 internal energy................   2.18394E-07
 spring and damper energy.......   1.00000E-20
 system damping energy..........   0.00000E+00
 sliding interface energy.......   0.00000E+00
 external work..................   2.18621E-07
 eroded kinetic energy..........   0.00000E+00
 eroded internal energy.........   0.00000E+00
 eroded hourglass energy........   0.00000E+00
 total energy...................   2.18621E-07
 total energy / initial energy..   1.00000E+00
 energy ratio w/o eroded energy.   1.00000E+00
 global x velocity..............   1.55023E-02
 global y velocity..............   1.55024E-02
 global z velocity..............   0.00000E+00
 time per zone cycle.(nanosec)..         67169


 dt of cycle    1186 is controlled by shell             11 of part         1

 time...........................   3.34754E-04
 time step......................   2.82493E-07
 kinetic energy.................   3.73303E-10
 internal energy................   2.29380E-07
 spring and damper energy.......   1.00000E-20
 system damping energy..........   0.00000E+00
 sliding interface energy.......   0.00000E+00
 external work..................   2.29753E-07
 eroded kinetic energy..........   0.00000E+00
 eroded internal energy.........   0.00000E+00
 eroded hourglass energy........   0.00000E+00
 total energy...................   2.29754E-07
 total energy / initial energy..   1.00000E+00
 energy ratio w/o eroded energy.   1.00000E+00
 global x velocity..............   1.99436E-02
 global y velocity..............   1.99436E-02
 global z velocity..............   0.00000E+00
 time per zone cycle.(nanosec)..          4771


 dt of cycle    1204 is controlled by shell             11 of part         1

 time...........................   3.39839E-04
 time step......................   2.82493E-07
 kinetic energy.................   3.77100E-10
 internal energy................   2.43118E-07
 spring and damper energy.......   1.00000E-20
 system damping energy..........   0.00000E+00
 sliding interface energy.......   0.00000E+00
 external work..................   2.43495E-07
 eroded kinetic energy..........   0.00000E+00
 eroded internal energy.........   0.00000E+00
 eroded hourglass energy........   0.00000E+00
 total energy...................   2.43495E-07
 total energy / initial energy..   1.00000E+00
 energy ratio w/o eroded energy.   1.00000E+00
 global x velocity..............   1.97119E-02
 global y velocity..............   1.97119E-02
 global z velocity..............   0.00000E+00
 time per zone cycle.(nanosec)..          4635


 dt of cycle    1222 is controlled by shell             11 of part         1

 time...........................   3.44924E-04
 time step......................   2.82493E-07
 kinetic energy.................   2.24541E-10
 internal energy................   2.55667E-07
 spring and damper energy.......   1.00000E-20
 system damping energy..........   0.00000E+00
 sliding interface energy.......   0.00000E+00
 external work..................   2.55891E-07
 eroded kinetic energy..........   0.00000E+00
 eroded internal energy.........   0.00000E+00
 eroded hourglass energy........   0.00000E+00
 total energy...................   2.55892E-07
 total energy / initial energy..   1.00000E+00
 energy ratio w/o eroded energy.   1.00000E+00
 global x velocity..............   1.55605E-02
 global y velocity..............   1.55604E-02
 global z velocity..............   0.00000E+00
 time per zone cycle.(nanosec)..          5279


 dt of cycle    1239 is controlled by shell             11 of part         1

 time...........................   3.49727E-04
 time step......................   2.82493E-07
 kinetic energy.................   7.24955E-11
 internal energy................   2.63776E-07
 spring and damper energy.......   1.00000E-20
 system damping energy..........   0.00000E+00
 sliding interface energy.......   0.00000E+00
 external work..................   2.63848E-07
 eroded kinetic energy..........   0.00000E+00
 eroded internal energy.........   0.00000E+00
 eroded hourglass energy........   0.00000E+00
 total energy...................   2.63848E-07
 total energy / initial energy..   1.00000E+00
 energy ratio w/o eroded energy.   1.00000E+00
 global x velocity..............   8.81833E-03
 global y velocity..............   8.81835E-03
 global z velocity..............   0.00000E+00
 time per zone cycle.(nanosec)..          4761


 dt of cycle    1257 is controlled by shell             11 of part         1

 time...........................   3.54811E-04
 time step......................   2.82493E-07
 kinetic energy.................   5.89215E-12
 internal energy................   2.68114E-07
 spring and damper energy.......   1.00000E-20
 system damping energy..........   0.00000E+00
 sliding interface energy.......   0.00000E+00
 external work..................   2.68120E-07
 eroded kinetic energy..........   0.00000E+00
 eroded internal energy.........   0.00000E+00
 eroded hourglass energy........   0.00000E+00
 total energy...................   2.68120E-07
 total energy / initial energy..   1.00000E+00
 energy ratio w/o eroded energy.   1.00000E+00
 global x velocity..............   2.52572E-03
 global y velocity..............   2.52558E-03
 global z velocity..............   0.00000E+00
 time per zone cycle.(nanosec)..          4754


 dt of cycle    1275 is controlled by shell             11 of part         1

 time...........................   3.59896E-04
 time step......................   2.82493E-07
 kinetic energy.................   5.97758E-13
 internal energy................   2.69125E-07
 spring and damper energy.......   1.00000E-20
 system damping energy..........   0.00000E+00
 sliding interface energy.......   0.00000E+00
 external work..................   2.69126E-07
 eroded kinetic energy..........   0.00000E+00
 eroded internal energy.........   0.00000E+00
 eroded hourglass energy........   0.00000E+00
 total energy...................   2.69126E-07
 total energy / initial energy..   1.00000E+00
 energy ratio w/o eroded energy.   1.00000E+00
 global x velocity..............   4.19234E-04
 global y velocity..............   4.19427E-04
 global z velocity..............   0.00000E+00
 time per zone cycle.(nanosec)..         19088


 dt of cycle    1293 is controlled by shell             11 of part         1

 time...........................   3.64981E-04
 time step......................   2.82493E-07
 kinetic energy.................   5.86806E-12
 internal energy................   2.70093E-07
 spring and damper energy.......   1.00000E-20
 system damping energy..........   0.00000E+00
 sliding interface energy.......   0.00000E+00
 external work..................   2.70098E-07
 eroded kinetic energy..........   0.00000E+00
 eroded internal energy.........   0.00000E+00
 eroded hourglass energy........   0.00000E+00
 total energy...................   2.70098E-07
 total energy / initial energy..   1.00000E+00
 energy ratio w/o eroded energy.   1.00000E+00
 global x velocity..............   2.58353E-03
 global y velocity..............   2.58325E-03
 global z velocity..............   0.00000E+00
 time per zone cycle.(nanosec)..          5232


 dt of cycle    1310 is controlled by shell             11 of part         1

 time...........................   3.69784E-04
 time step......................   2.82493E-07
 kinetic energy.................   6.57394E-11
 internal energy................   2.74145E-07
 spring and damper energy.......   1.00000E-20
 system damping energy..........   0.00000E+00
 sliding interface energy.......   0.00000E+00
 external work..................   2.74211E-07
 eroded kinetic energy..........   0.00000E+00
 eroded internal energy.........   0.00000E+00
 eroded hourglass energy........   0.00000E+00
 total energy...................   2.74211E-07
 total energy / initial energy..   1.00000E+00
 energy ratio w/o eroded energy.   1.00000E+00
 global x velocity..............   8.40324E-03
 global y velocity..............   8.40343E-03
 global z velocity..............   0.00000E+00
 time per zone cycle.(nanosec)..          4773


 dt of cycle    1328 is controlled by shell             11 of part         1

 time...........................   3.74869E-04
 time step......................   2.82493E-07
 kinetic energy.................   2.24258E-10
 internal energy................   2.82912E-07
 spring and damper energy.......   1.00000E-20
 system damping energy..........   0.00000E+00
 sliding interface energy.......   0.00000E+00
 external work..................   2.83137E-07
 eroded kinetic energy..........   0.00000E+00
 eroded internal energy.........   0.00000E+00
 eroded hourglass energy........   0.00000E+00
 total energy...................   2.83137E-07
 total energy / initial energy..   1.00000E+00
 energy ratio w/o eroded energy.   1.00000E+00
 global x velocity..............   1.55740E-02
 global y velocity..............   1.55740E-02
 global z velocity..............   0.00000E+00
 time per zone cycle.(nanosec)..         67392


 dt of cycle    1346 is controlled by shell             11 of part         1

 time...........................   3.79953E-04
 time step......................   2.82493E-07
 kinetic energy.................   3.76902E-10
 internal energy................   2.96361E-07
 spring and damper energy.......   1.00000E-20
 system damping energy..........   0.00000E+00
 sliding interface energy.......   0.00000E+00
 external work..................   2.96738E-07
 eroded kinetic energy..........   0.00000E+00
 eroded internal energy.........   0.00000E+00
 eroded hourglass energy........   0.00000E+00
 total energy...................   2.96738E-07
 total energy / initial energy..   1.00000E+00
 energy ratio w/o eroded energy.   1.00000E+00
 global x velocity..............   1.97262E-02
 global y velocity..............   1.97263E-02
 global z velocity..............   0.00000E+00
 time per zone cycle.(nanosec)..         19542


 dt of cycle    1363 is controlled by shell             11 of part         1

 time...........................   3.84756E-04
 time step......................   2.82493E-07
 kinetic energy.................   3.78688E-10
 internal energy................   3.11128E-07
 spring and damper energy.......   1.00000E-20
 system damping energy..........   0.00000E+00
 sliding interface energy.......   0.00000E+00
 external work..................   3.11507E-07
 eroded kinetic energy..........   0.00000E+00
 eroded internal energy.........   0.00000E+00
 eroded hourglass energy........   0.00000E+00
 total energy...................   3.11507E-07
 total energy / initial energy..   1.00000E+00
 energy ratio w/o eroded energy.   1.00000E+00
 global x velocity..............   2.00406E-02
 global y velocity..............   2.00406E-02
 global z velocity..............   0.00000E+00
 time per zone cycle.(nanosec)..          4784


 dt of cycle    1381 is controlled by shell             11 of part         1

 time...........................   3.89841E-04
 time step......................   2.82493E-07
 kinetic energy.................   2.27002E-10
 internal energy................   3.25119E-07
 spring and damper energy.......   1.00000E-20
 system damping energy..........   0.00000E+00
 sliding interface energy.......   0.00000E+00
 external work..................   3.25346E-07
 eroded kinetic energy..........   0.00000E+00
 eroded internal energy.........   0.00000E+00
 eroded hourglass energy........   0.00000E+00
 total energy...................   3.25346E-07
 total energy / initial energy..   1.00000E+00
 energy ratio w/o eroded energy.   1.00000E+00
 global x velocity..............   1.56026E-02
 global y velocity..............   1.56026E-02
 global z velocity..............   0.00000E+00
 time per zone cycle.(nanosec)..          4665


 dt of cycle    1399 is controlled by shell             11 of part         1

 time...........................   3.94926E-04
 time step......................   2.82493E-07
 kinetic energy.................   6.74820E-11
 internal energy................   3.35004E-07
 spring and damper energy.......   1.00000E-20
 system damping energy..........   0.00000E+00
 sliding interface energy.......   0.00000E+00
 external work..................   3.35071E-07
 eroded kinetic energy..........   0.00000E+00
 eroded internal energy.........   0.00000E+00
 eroded hourglass energy........   0.00000E+00
 total energy...................   3.35072E-07
 total energy / initial energy..   1.00000E+00
 energy ratio w/o eroded energy.   1.00000E+00
 global x velocity..............   8.34557E-03
 global y velocity..............   8.34555E-03
 global z velocity..............   0.00000E+00
 time per zone cycle.(nanosec)..         57588


 dt of cycle    1416 is controlled by shell             11 of part         1

 time...........................   3.99728E-04
 time step......................   2.82493E-07
 kinetic energy.................   6.75003E-12
 internal energy................   3.39412E-07
 spring and damper energy.......   1.00000E-20
 system damping energy..........   0.00000E+00
 sliding interface energy.......   0.00000E+00
 external work..................   3.39418E-07
 eroded kinetic energy..........   0.00000E+00
 eroded internal energy.........   0.00000E+00
 eroded hourglass energy........   0.00000E+00
 total energy...................   3.39418E-07
 total energy / initial energy..   1.00000E+00
 energy ratio w/o eroded energy.   1.00000E+00
 global x velocity..............   2.94282E-03
 global y velocity..............   2.94282E-03
 global z velocity..............   0.00000E+00
 time per zone cycle.(nanosec)..          4764


 dt of cycle    1434 is controlled by shell             11 of part         1

 time...........................   4.04813E-04
 time step......................   2.82493E-07
 kinetic energy.................   9.90364E-14
 internal energy................   3.40489E-07
 spring and damper energy.......   1.00000E-20
 system damping energy..........   0.00000E+00
 sliding interface energy.......   0.00000E+00
 external work..................   3.40489E-07
 eroded kinetic energy..........   0.00000E+00
 eroded internal energy.........   0.00000E+00
 eroded hourglass energy........   0.00000E+00
 total energy...................   3.40489E-07
 total energy / initial energy..   1.00000E+00
 energy ratio w/o eroded energy.   1.00000E+00
 global x velocity..............   1.64509E-04
 global y velocity..............   1.64549E-04
 global z velocity..............   0.00000E+00
 time per zone cycle.(nanosec)..          4760


 dt of cycle    1452 is controlled by shell             11 of part         1

 time...........................   4.09898E-04
 time step......................   2.82493E-07
 kinetic energy.................   5.54848E-12
 internal energy................   3.41824E-07
 spring and damper energy.......   1.00000E-20
 system damping energy..........   0.00000E+00
 sliding interface energy.......   0.00000E+00
 external work..................   3.41829E-07
 eroded kinetic energy..........   0.00000E+00
 eroded internal energy.........   0.00000E+00
 eroded hourglass energy........   0.00000E+00
 total energy...................   3.41829E-07
 total energy / initial energy..   1.00000E+00
 energy ratio w/o eroded energy.   1.00000E+00
 global x velocity..............   2.46422E-03
 global y velocity..............   2.46414E-03
 global z velocity..............   0.00000E+00
 time per zone cycle.(nanosec)..         12392


 dt of cycle    1470 is controlled by shell             11 of part         1

 time...........................   4.14983E-04
 time step......................   2.82493E-07
 kinetic energy.................   7.10292E-11
 internal energy................   3.46453E-07
 spring and damper energy.......   1.00000E-20
 system damping energy..........   0.00000E+00
 sliding interface energy.......   0.00000E+00
 external work..................   3.46524E-07
 eroded kinetic energy..........   0.00000E+00
 eroded internal energy.........   0.00000E+00
 eroded hourglass energy........   0.00000E+00
 total energy...................   3.46524E-07
 total energy / initial energy..   1.00000E+00
 energy ratio w/o eroded energy.   1.00000E+00
 global x velocity..............   8.95201E-03
 global y velocity..............   8.95227E-03
 global z velocity..............   0.00000E+00
 time per zone cycle.(nanosec)..         69552


 dt of cycle    1487 is controlled by shell             11 of part         1

 time...........................   4.19785E-04
 time step......................   2.82493E-07
 kinetic energy.................   2.21138E-10
 internal energy................   3.55908E-07
 spring and damper energy.......   1.00000E-20
 system damping energy..........   0.00000E+00
 sliding interface energy.......   0.00000E+00
 external work..................   3.56129E-07
 eroded kinetic energy..........   0.00000E+00
 eroded internal energy.........   0.00000E+00
 eroded hourglass energy........   0.00000E+00
 total energy...................   3.56129E-07
 total energy / initial energy..   1.00000E+00
 energy ratio w/o eroded energy.   1.00000E+00
 global x velocity..............   1.51355E-02
 global y velocity..............   1.51354E-02
 global z velocity..............   0.00000E+00
 time per zone cycle.(nanosec)..          4802


 dt of cycle    1505 is controlled by shell             11 of part         1

 time...........................   4.24870E-04
 time step......................   2.82493E-07
 kinetic energy.................   3.75734E-10
 internal energy................   3.71076E-07
 spring and damper energy.......   1.00000E-20
 system damping energy..........   0.00000E+00
 sliding interface energy.......   0.00000E+00
 external work..................   3.71452E-07
 eroded kinetic energy..........   0.00000E+00
 eroded internal energy.........   0.00000E+00
 eroded hourglass energy........   0.00000E+00
 total energy...................   3.71452E-07
 total energy / initial energy..   1.00000E+00
 energy ratio w/o eroded energy.   1.00000E+00
 global x velocity..............   1.99005E-02
 global y velocity..............   1.99005E-02
 global z velocity..............   0.00000E+00
 time per zone cycle.(nanosec)..         14411


 dt of cycle    1523 is controlled by shell             11 of part         1

 time...........................   4.29955E-04
 time step......................   2.82493E-07
[...]
 external work..................   1.53490E-05
 eroded kinetic energy..........   0.00000E+00
 eroded internal energy.........   0.00000E+00
 eroded hourglass energy........   0.00000E+00
 total energy...................   1.53490E-05
 total energy / initial energy..   9.99999E-01
 energy ratio w/o eroded energy.   9.99999E-01
 global x velocity..............   1.99631E-02
 global y velocity..............   1.99672E-02
 global z velocity..............   0.00000E+00
 time per zone cycle.(nanosec)..          4742


 dt of cycle    9647 is controlled by shell             11 of part         1

 time...........................   2.72492E-03
 time step......................   2.82492E-07
 kinetic energy.................   3.61438E-10
 internal energy................   1.54596E-05
 spring and damper energy.......   1.00000E-20
 system damping energy..........   0.00000E+00
 sliding interface energy.......   0.00000E+00
 external work..................   1.54599E-05
 eroded kinetic energy..........   0.00000E+00
 eroded internal energy.........   0.00000E+00
 eroded hourglass energy........   0.00000E+00
 total energy...................   1.54599E-05
 total energy / initial energy..   9.99999E-01
 energy ratio w/o eroded energy.   9.99999E-01
 global x velocity..............   1.95471E-02
 global y velocity..............   1.95453E-02
 global z velocity..............   0.00000E+00
 time per zone cycle.(nanosec)..         17156


 dt of cycle    9665 is controlled by shell             11 of part         1

 time...........................   2.73001E-03
 time step......................   2.82492E-07
 kinetic energy.................   1.96949E-10
 internal energy................   1.55531E-05
 spring and damper energy.......   1.00000E-20
 system damping energy..........   0.00000E+00
 sliding interface energy.......   0.00000E+00
 external work..................   1.55533E-05
 eroded kinetic energy..........   0.00000E+00
 eroded internal energy.........   0.00000E+00
 eroded hourglass energy........   0.00000E+00
 total energy...................   1.55533E-05
 total energy / initial energy..   9.99999E-01
 energy ratio w/o eroded energy.   9.99999E-01
 global x velocity..............   1.45594E-02
 global y velocity..............   1.45617E-02
 global z velocity..............   0.00000E+00
 time per zone cycle.(nanosec)..          5055


 dt of cycle    9682 is controlled by shell             11 of part         1

 time...........................   2.73481E-03
 time step......................   2.82492E-07
 kinetic energy.................   5.57551E-11
 internal energy................   1.56123E-05
 spring and damper energy.......   1.00000E-20
 system damping energy..........   0.00000E+00
 sliding interface energy.......   0.00000E+00
 external work..................   1.56124E-05
 eroded kinetic energy..........   0.00000E+00
 eroded internal energy.........   0.00000E+00
 eroded hourglass energy........   0.00000E+00
 total energy...................   1.56123E-05
 total energy / initial energy..   9.99999E-01
 energy ratio w/o eroded energy.   9.99999E-01
 global x velocity..............   7.62916E-03
 global y velocity..............   7.62700E-03
 global z velocity..............   0.00000E+00
 time per zone cycle.(nanosec)..         13351


 dt of cycle    9700 is controlled by shell             11 of part         1

 time...........................   2.73990E-03
 time step......................   2.82492E-07
 kinetic energy.................   3.58663E-12
 internal energy................   1.56400E-05
 spring and damper energy.......   1.00000E-20
 system damping energy..........   0.00000E+00
 sliding interface energy.......   0.00000E+00
 external work..................   1.56400E-05
 eroded kinetic energy..........   0.00000E+00
 eroded internal energy.........   0.00000E+00
 eroded hourglass energy........   0.00000E+00
 total energy...................   1.56400E-05
 total energy / initial energy..   9.99999E-01
 energy ratio w/o eroded energy.   9.99999E-01
 global x velocity..............   2.15319E-03
 global y velocity..............   2.15365E-03
 global z velocity..............   0.00000E+00
 time per zone cycle.(nanosec)..          5199


 dt of cycle    9718 is controlled by shell             11 of part         1

 time...........................   2.74498E-03
 time step......................   2.82492E-07
 kinetic energy.................   1.84590E-13
 internal energy................   1.56454E-05
 spring and damper energy.......   1.00000E-20
 system damping energy..........   0.00000E+00
 sliding interface energy.......   0.00000E+00
 external work..................   1.56455E-05
 eroded kinetic energy..........   0.00000E+00
 eroded internal energy.........   0.00000E+00
 eroded hourglass energy........   0.00000E+00
 total energy...................   1.56454E-05
 total energy / initial energy..   9.99999E-01
 energy ratio w/o eroded energy.   9.99999E-01
 global x velocity..............   3.03023E-04
 global y velocity..............   2.99419E-04
 global z velocity..............   0.00000E+00
 time per zone cycle.(nanosec)..         17090


 dt of cycle    9735 is controlled by shell             11 of part         1

 time...........................   2.74978E-03
 time step......................   2.82492E-07
 kinetic energy.................   8.26771E-12
 internal energy................   1.56557E-05
 spring and damper energy.......   1.00000E-20
 system damping energy..........   0.00000E+00
 sliding interface energy.......   0.00000E+00
 external work..................   1.56557E-05
 eroded kinetic energy..........   0.00000E+00
 eroded internal energy.........   0.00000E+00
 eroded hourglass energy........   0.00000E+00
 total energy...................   1.56557E-05
 total energy / initial energy..   9.99999E-01
 energy ratio w/o eroded energy.   9.99999E-01
 global x velocity..............   2.99452E-03
 global y velocity..............   2.99529E-03
 global z velocity..............   0.00000E+00
 time per zone cycle.(nanosec)..         13292


 dt of cycle    9753 is controlled by shell             11 of part         1

 time...........................   2.75487E-03
 time step......................   2.82492E-07
 kinetic energy.................   8.43411E-11
 internal energy................   1.56907E-05
 spring and damper energy.......   1.00000E-20
 system damping energy..........   0.00000E+00
 sliding interface energy.......   0.00000E+00
 external work..................   1.56908E-05
 eroded kinetic energy..........   0.00000E+00
 eroded internal energy.........   0.00000E+00
 eroded hourglass energy........   0.00000E+00
 total energy...................   1.56907E-05
 total energy / initial energy..   9.99999E-01
 energy ratio w/o eroded energy.   9.99999E-01
 global x velocity..............   9.69054E-03
 global y velocity..............   9.68583E-03
 global z velocity..............   0.00000E+00
 time per zone cycle.(nanosec)..          4763


 dt of cycle    9771 is controlled by shell             11 of part         1

 time...........................   2.75995E-03
 time step......................   2.82492E-07
 kinetic energy.................   2.51117E-10
 internal energy................   1.57625E-05
 spring and damper energy.......   1.00000E-20
 system damping energy..........   0.00000E+00
 sliding interface energy.......   0.00000E+00
 external work..................   1.57628E-05
 eroded kinetic energy..........   0.00000E+00
 eroded internal energy.........   0.00000E+00
 eroded hourglass energy........   0.00000E+00
 total energy...................   1.57628E-05
 total energy / initial energy..   9.99999E-01
 energy ratio w/o eroded energy.   9.99999E-01
 global x velocity..............   1.62063E-02
 global y velocity..............   1.62070E-02
 global z velocity..............   0.00000E+00
 time per zone cycle.(nanosec)..         23642


 dt of cycle    9788 is controlled by shell             11 of part         1

 time...........................   2.76476E-03
 time step......................   2.82492E-07
 kinetic energy.................   3.84653E-10
 internal energy................   1.58602E-05
 spring and damper energy.......   1.00000E-20
 system damping energy..........   0.00000E+00
 sliding interface energy.......   0.00000E+00
 external work..................   1.58606E-05
 eroded kinetic energy..........   0.00000E+00
 eroded internal energy.........   0.00000E+00
 eroded hourglass energy........   0.00000E+00
 total energy...................   1.58606E-05
 total energy / initial energy..   9.99999E-01
 energy ratio w/o eroded energy.   9.99999E-01
 global x velocity..............   2.00941E-02
 global y velocity..............   2.00910E-02
 global z velocity..............   0.00000E+00
 time per zone cycle.(nanosec)..         12446


 dt of cycle    9806 is controlled by shell             11 of part         1

 time...........................   2.76984E-03
 time step......................   2.82492E-07
 kinetic energy.................   3.63283E-10
 internal energy................   1.59712E-05
 spring and damper energy.......   1.00000E-20
 system damping energy..........   0.00000E+00
 sliding interface energy.......   0.00000E+00
 external work..................   1.59716E-05
 eroded kinetic energy..........   0.00000E+00
 eroded internal energy.........   0.00000E+00
 eroded hourglass energy........   0.00000E+00
 total energy...................   1.59716E-05
 total energy / initial energy..   9.99999E-01
 energy ratio w/o eroded energy.   9.99999E-01
 global x velocity..............   1.97234E-02
 global y velocity..............   1.97217E-02
 global z velocity..............   0.00000E+00
 time per zone cycle.(nanosec)..          4779


 dt of cycle    9824 is controlled by shell             11 of part         1

 time...........................   2.77492E-03
 time step......................   2.82492E-07
 kinetic energy.................   1.99085E-10
 internal energy................   1.60679E-05
 spring and damper energy.......   1.00000E-20
 system damping energy..........   0.00000E+00
 sliding interface energy.......   0.00000E+00
 external work..................   1.60681E-05
 eroded kinetic energy..........   0.00000E+00
 eroded internal energy.........   0.00000E+00
 eroded hourglass energy........   0.00000E+00
 total energy...................   1.60681E-05
 total energy / initial energy..   9.99999E-01
 energy ratio w/o eroded energy.   9.99999E-01
 global x velocity..............   1.43386E-02
 global y velocity..............   1.43359E-02
 global z velocity..............   0.00000E+00
 time per zone cycle.(nanosec)..          5072


 dt of cycle    9842 is controlled by shell             11 of part         1

 time...........................   2.78001E-03
 time step......................   2.82492E-07
 kinetic energy.................   5.18511E-11
 internal energy................   1.61312E-05
 spring and damper energy.......   1.00000E-20
 system damping energy..........   0.00000E+00
 sliding interface energy.......   0.00000E+00
 external work..................   1.61313E-05
 eroded kinetic energy..........   0.00000E+00
 eroded internal energy.........   0.00000E+00
 eroded hourglass energy........   0.00000E+00
 total energy...................   1.61313E-05
 total energy / initial energy..   1.00000E+00
 energy ratio w/o eroded energy.   1.00000E+00
 global x velocity..............   7.57774E-03
 global y velocity..............   7.57654E-03
 global z velocity..............   0.00000E+00
 time per zone cycle.(nanosec)..         21921


 dt of cycle    9859 is controlled by shell             11 of part         1

 time...........................   2.78481E-03
 time step......................   2.82492E-07
 kinetic energy.................   3.62230E-12
 internal energy................   1.61559E-05
 spring and damper energy.......   1.00000E-20
 system damping energy..........   0.00000E+00
 sliding interface energy.......   0.00000E+00
 external work..................   1.61559E-05
 eroded kinetic energy..........   0.00000E+00
 eroded internal energy.........   0.00000E+00
 eroded hourglass energy........   0.00000E+00
 total energy...................   1.61559E-05
 total energy / initial energy..   1.00000E+00
 energy ratio w/o eroded energy.   1.00000E+00
 global x velocity..............   2.13731E-03
 global y velocity..............   2.13666E-03
 global z velocity..............   0.00000E+00
 time per zone cycle.(nanosec)..          4733


 dt of cycle    9877 is controlled by shell             11 of part         1

 time...........................   2.78990E-03
 time step......................   2.82492E-07
 kinetic energy.................   1.08738E-14
 internal energy................   1.61634E-05
 spring and damper energy.......   1.00000E-20
 system damping energy..........   0.00000E+00
 sliding interface energy.......   0.00000E+00
 external work..................   1.61634E-05
 eroded kinetic energy..........   0.00000E+00
 eroded internal energy.........   0.00000E+00
 eroded hourglass energy........   0.00000E+00
 total energy...................   1.61634E-05
 total energy / initial energy..   1.00000E+00
 energy ratio w/o eroded energy.   1.00000E+00
 global x velocity..............   9.44619E-05
 global y velocity..............   9.49711E-05
 global z velocity..............   0.00000E+00
 time per zone cycle.(nanosec)..          5128


 dt of cycle    9895 is controlled by shell             11 of part         1

 time...........................   2.79498E-03
 time step......................   2.82492E-07
 kinetic energy.................   9.95575E-12
 internal energy................   1.61737E-05
 spring and damper energy.......   1.00000E-20
 system damping energy..........   0.00000E+00
 sliding interface energy.......   0.00000E+00
 external work..................   1.61737E-05
 eroded kinetic energy..........   0.00000E+00
 eroded internal energy.........   0.00000E+00
 eroded hourglass energy........   0.00000E+00
 total energy...................   1.61737E-05
 total energy / initial energy..   1.00000E+00
 energy ratio w/o eroded energy.   1.00000E+00
 global x velocity..............   3.51948E-03
 global y velocity..............   3.52199E-03
 global z velocity..............   0.00000E+00
 time per zone cycle.(nanosec)..          5145


 dt of cycle    9912 is controlled by shell             11 of part         1

 time...........................   2.79978E-03
 time step......................   2.82492E-07
 kinetic energy.................   8.21069E-11
 internal energy................   1.62072E-05
 spring and damper energy.......   1.00000E-20
 system damping energy..........   0.00000E+00
 sliding interface energy.......   0.00000E+00
 external work..................   1.62073E-05
 eroded kinetic energy..........   0.00000E+00
 eroded internal energy.........   0.00000E+00
 eroded hourglass energy........   0.00000E+00
 total energy...................   1.62073E-05
 total energy / initial energy..   1.00000E+00
 energy ratio w/o eroded energy.   1.00000E+00
 global x velocity..............   9.32965E-03
 global y velocity..............   9.32930E-03
 global z velocity..............   0.00000E+00
 time per zone cycle.(nanosec)..          4713


 dt of cycle    9930 is controlled by shell             11 of part         1

 time...........................   2.80487E-03
 time step......................   2.82492E-07
 kinetic energy.................   2.48656E-10
 internal energy................   1.62813E-05
 spring and damper energy.......   1.00000E-20
 system damping energy..........   0.00000E+00
 sliding interface energy.......   0.00000E+00
 external work..................   1.62816E-05
 eroded kinetic energy..........   0.00000E+00
 eroded internal energy.........   0.00000E+00
 eroded hourglass energy........   0.00000E+00
 total energy...................   1.62816E-05
 total energy / initial energy..   1.00000E+00
 energy ratio w/o eroded energy.   1.00000E+00
 global x velocity..............   1.61292E-02
 global y velocity..............   1.61363E-02
 global z velocity..............   0.00000E+00
 time per zone cycle.(nanosec)..          4765


 dt of cycle    9948 is controlled by shell             11 of part         1

 time...........................   2.80995E-03
 time step......................   2.82492E-07
 kinetic energy.................   3.88107E-10
 internal energy................   1.63849E-05
 spring and damper energy.......   1.00000E-20
 system damping energy..........   0.00000E+00
 sliding interface energy.......   0.00000E+00
 external work..................   1.63853E-05
 eroded kinetic energy..........   0.00000E+00
 eroded internal energy.........   0.00000E+00
 eroded hourglass energy........   0.00000E+00
 total energy...................   1.63853E-05
 total energy / initial energy..   1.00000E+00
 energy ratio w/o eroded energy.   1.00000E+00
 global x velocity..............   2.03644E-02
 global y velocity..............   2.03626E-02
 global z velocity..............   0.00000E+00
 time per zone cycle.(nanosec)..          5071


 dt of cycle    9965 is controlled by shell             11 of part         1

 time...........................   2.81476E-03
 time step......................   2.82492E-07
 kinetic energy.................   3.64462E-10
 internal energy................   1.64922E-05
 spring and damper energy.......   1.00000E-20
 system damping energy..........   0.00000E+00
 sliding interface energy.......   0.00000E+00
 external work..................   1.64926E-05
 eroded kinetic energy..........   0.00000E+00
 eroded internal energy.........   0.00000E+00
 eroded hourglass energy........   0.00000E+00
 total energy...................   1.64926E-05
 total energy / initial energy..   1.00000E+00
 energy ratio w/o eroded energy.   1.00000E+00
 global x velocity..............   1.94340E-02
 global y velocity..............   1.94409E-02
 global z velocity..............   0.00000E+00
 time per zone cycle.(nanosec)..          4695


 dt of cycle    9983 is controlled by shell             11 of part         1

 time...........................   2.81984E-03
 time step......................   2.82492E-07
 kinetic energy.................   2.01811E-10
 internal energy................   1.65916E-05
 spring and damper energy.......   1.00000E-20
 system damping energy..........   0.00000E+00
 sliding interface energy.......   0.00000E+00
 external work..................   1.65918E-05
 eroded kinetic energy..........   0.00000E+00
 eroded internal energy.........   0.00000E+00
 eroded hourglass energy........   0.00000E+00
 total energy...................   1.65918E-05
 total energy / initial energy..   1.00000E+00
 energy ratio w/o eroded energy.   1.00000E+00
 global x velocity..............   1.46494E-02
 global y velocity..............   1.46482E-02
 global z velocity..............   0.00000E+00
 time per zone cycle.(nanosec)..         10047


 dt of cycle   10001 is controlled by shell             11 of part         1

 time...........................   2.82493E-03
 time step......................   2.82492E-07
 kinetic energy.................   5.33371E-11
 internal energy................   1.66547E-05
 spring and damper energy.......   1.00000E-20
 system damping energy..........   0.00000E+00
 sliding interface energy.......   0.00000E+00
 external work..................   1.66547E-05
 eroded kinetic energy..........   0.00000E+00
 eroded internal energy.........   0.00000E+00
 eroded hourglass energy........   0.00000E+00
 total energy...................   1.66547E-05
 total energy / initial energy..   1.00000E+00
 energy ratio w/o eroded energy.   1.00000E+00
 global x velocity..............   7.73162E-03
 global y velocity..............   7.73587E-03
 global z velocity..............   0.00000E+00
 time per zone cycle.(nanosec)..      23897369
