 LS-DYNA keyword deck by LS-PrePost                                      
                         ls-dyna smp.123264 s           date 01/12/2018

{BEGIN LEGEND}
 Entity #        Title
        1     Unit_Cell_Corner                                                        
{END LEGEND}



 time =   0.0000E+00
 mat.#=    1             inten=   0.0000E+00     kinen=   0.0000E+00     eroded_ie=   0.0000E+00     eroded_ke=   0.0000E+00
 x-mom=   0.0000E+00     y-mom=   0.0000E+00     z-mom=   0.0000E+00
 x-rbv=   0.0000E+00     y-rbv=   0.0000E+00     z-rbv=   0.0000E+00


 time =   4.8024E-06
 mat.#=    1             inten=   4.0400E-12     kinen=   4.3417E-12     eroded_ie=   0.0000E+00     eroded_ke=   0.0000E+00
 x-mom=   8.5862E-10     y-mom=   8.5862E-10     z-mom=   0.0000E+00
 x-rbv=   2.4859E-03     y-rbv=   2.4859E-03     z-rbv=   0.0000E+00


 time =   9.8873E-06
 mat.#=    1             inten=   2.6248E-11     kinen=   5.9675E-11     eroded_ie=   0.0000E+00     eroded_ke=   0.0000E+00
 x-mom=   2.8394E-09     y-mom=   2.8394E-09     z-mom=   0.0000E+00
 x-rbv=   8.2207E-03     y-rbv=   8.2207E-03     z-rbv=   0.0000E+00


 time =   1.4972E-05
 mat.#=    1             inten=   1.8054E-10     kinen=   2.0819E-10     eroded_ie=   0.0000E+00     eroded_ke=   0.0000E+00
 x-mom=   5.2049E-09     y-mom=   5.2049E-09     z-mom=   0.0000E+00
 x-rbv=   1.5069E-02     y-rbv=   1.5069E-02     z-rbv=   0.0000E+00


 time =   1.9775E-05
 mat.#=    1             inten=   6.2161E-10     kinen=   3.5124E-10     eroded_ie=   0.0000E+00     eroded_ke=   0.0000E+00
 x-mom=   6.8846E-09     y-mom=   6.8846E-09     z-mom=   0.0000E+00
 x-rbv=   1.9932E-02     y-rbv=   1.9932E-02     z-rbv=   0.0000E+00


 time =   2.4859E-05
 mat.#=    1             inten=   1.5150E-09     kinen=   3.6203E-10     eroded_ie=   0.0000E+00     eroded_ke=   0.0000E+00
 x-mom=   6.8596E-09     y-mom=   6.8596E-09     z-mom=   0.0000E+00
 x-rbv=   1.9860E-02     y-rbv=   1.9860E-02     z-rbv=   0.0000E+00


 time =   2.9944E-05
 mat.#=    1             inten=   2.6660E-09     kinen=   2.2045E-10     eroded_ie=   0.0000E+00     eroded_ke=   0.0000E+00
 x-mom=   5.4080E-09     y-mom=   5.4080E-09     z-mom=   0.0000E+00
 x-rbv=   1.5657E-02     y-rbv=   1.5657E-02     z-rbv=   0.0000E+00


 time =   3.4747E-05
 mat.#=    1             inten=   3.5615E-09     kinen=   7.3811E-11     eroded_ie=   0.0000E+00     eroded_ke=   0.0000E+00
 x-mom=   3.2055E-09     y-mom=   3.2055E-09     z-mom=   0.0000E+00
 x-rbv=   9.2807E-03     y-rbv=   9.2807E-03     z-rbv=   0.0000E+00


 time =   3.9832E-05
 mat.#=    1             inten=   4.0699E-09     kinen=   6.4982E-12     eroded_ie=   0.0000E+00     eroded_ke=   0.0000E+00
 x-mom=   9.2177E-10     y-mom=   9.2177E-10     z-mom=   0.0000E+00
 x-rbv=   2.6687E-03     y-rbv=   2.6687E-03     z-rbv=   0.0000E+00


 time =   4.4916E-05
 mat.#=    1             inten=   4.2141E-09     kinen=   2.4085E-13     eroded_ie=   0.0000E+00     eroded_ke=   0.0000E+00
 x-mom=   1.1192E-10     y-mom=   1.1192E-10     z-mom=   0.0000E+00
 x-rbv=   3.2403E-04     y-rbv=   3.2403E-04     z-rbv=   0.0000E+00


 time =   4.9719E-05
 mat.#=    1             inten=   4.3103E-09     kinen=   3.8944E-12     eroded_ie=   0.0000E+00     eroded_ke=   0.0000E+00
 x-mom=   7.7765E-10     y-mom=   7.7764E-10     z-mom=   0.0000E+00
 x-rbv=   2.2514E-03     y-rbv=   2.2514E-03     z-rbv=   0.0000E+00


 time =   5.4804E-05
 mat.#=    1             inten=   4.8430E-09     kinen=   5.8162E-11     eroded_ie=   0.0000E+00     eroded_ke=   0.0000E+00
 x-mom=   2.7540E-09     y-mom=   2.7540E-09     z-mom=   0.0000E+00
 x-rbv=   7.9733E-03     y-rbv=   7.9733E-03     z-rbv=   0.0000E+00


 time =   5.9889E-05
 mat.#=    1             inten=   6.0760E-09     kinen=   2.0596E-10     eroded_ie=   0.0000E+00     eroded_ke=   0.0000E+00
 x-mom=   5.2947E-09     y-mom=   5.2947E-09     z-mom=   0.0000E+00
 x-rbv=   1.5329E-02     y-rbv=   1.5329E-02     z-rbv=   0.0000E+00


 time =   6.4973E-05
 mat.#=    1             inten=   8.1440E-09     kinen=   3.5488E-10     eroded_ie=   0.0000E+00     eroded_ke=   0.0000E+00
 x-mom=   6.8305E-09     y-mom=   6.8305E-09     z-mom=   0.0000E+00
 x-rbv=   1.9776E-02     y-rbv=   1.9776E-02     z-rbv=   0.0000E+00


 time =   6.9776E-05
 mat.#=    1             inten=   1.0753E-08     kinen=   3.6326E-10     eroded_ie=   0.0000E+00     eroded_ke=   0.0000E+00
 x-mom=   6.8944E-09     y-mom=   6.8944E-09     z-mom=   0.0000E+00
 x-rbv=   1.9961E-02     y-rbv=   1.9961E-02     z-rbv=   0.0000E+00


 time =   7.4861E-05
 mat.#=    1             inten=   1.3506E-08     kinen=   2.2328E-10     eroded_ie=   0.0000E+00     eroded_ke=   0.0000E+00
 x-mom=   5.5158E-09     y-mom=   5.5158E-09     z-mom=   0.0000E+00
 x-rbv=   1.5969E-02     y-rbv=   1.5969E-02     z-rbv=   0.0000E+00


 time =   7.9946E-05
 mat.#=    1             inten=   1.5563E-08     kinen=   6.8714E-11     eroded_ie=   0.0000E+00     eroded_ke=   0.0000E+00
 x-mom=   2.9877E-09     y-mom=   2.9877E-09     z-mom=   0.0000E+00
 x-rbv=   8.6500E-03     y-rbv=   8.6500E-03     z-rbv=   0.0000E+00


 time =   8.4748E-05
 mat.#=    1             inten=   1.6564E-08     kinen=   7.0118E-12     eroded_ie=   0.0000E+00     eroded_ke=   0.0000E+00
 x-mom=   1.0348E-09     y-mom=   1.0348E-09     z-mom=   0.0000E+00
 x-rbv=   2.9960E-03     y-rbv=   2.9961E-03     z-rbv=   0.0000E+00


 time =   8.9833E-05
 mat.#=    1             inten=   1.6800E-08     kinen=   2.5382E-13     eroded_ie=   0.0000E+00     eroded_ke=   0.0000E+00
 x-mom=   1.2397E-10     y-mom=   1.2398E-10     z-mom=   0.0000E+00
 x-rbv=   3.5893E-04     y-rbv=   3.5894E-04     z-rbv=   0.0000E+00


 time =   9.4918E-05
 mat.#=    1             inten=   1.7069E-08     kinen=   4.4479E-12     eroded_ie=   0.0000E+00     eroded_ke=   0.0000E+00
 x-mom=   7.5753E-10     y-mom=   7.5752E-10     z-mom=   0.0000E+00
 x-rbv=   2.1932E-03     y-rbv=   2.1932E-03     z-rbv=   0.0000E+00


 time =   9.9720E-05
 mat.#=    1             inten=   1.8050E-08     kinen=   5.7083E-11     eroded_ie=   0.0000E+00     eroded_ke=   0.0000E+00
 x-mom=   2.8492E-09     y-mom=   2.8492E-09     z-mom=   0.0000E+00
 x-rbv=   8.2490E-03     y-rbv=   8.2491E-03     z-rbv=   0.0000E+00


 time =   1.0481E-04
 mat.#=    1             inten=   2.0306E-08     kinen=   2.0332E-10     eroded_ie=   0.0000E+00     eroded_ke=   0.0000E+00
 x-mom=   5.1855E-09     y-mom=   5.1855E-09     z-mom=   0.0000E+00
 x-rbv=   1.5013E-02     y-rbv=   1.5013E-02     z-rbv=   0.0000E+00


 time =   1.0989E-04
 mat.#=    1             inten=   2.4036E-08     kinen=   3.5351E-10     eroded_ie=   0.0000E+00     eroded_ke=   0.0000E+00
 x-mom=   6.7805E-09     y-mom=   6.7805E-09     z-mom=   0.0000E+00
 x-rbv=   1.9631E-02     y-rbv=   1.9631E-02     z-rbv=   0.0000E+00


 time =   1.1497E-04
 mat.#=    1             inten=   2.8584E-08     kinen=   3.6017E-10     eroded_ie=   0.0000E+00     eroded_ke=   0.0000E+00
 x-mom=   6.9636E-09     y-mom=   6.9636E-09     z-mom=   0.0000E+00
 x-rbv=   2.0161E-02     y-rbv=   2.0161E-02     z-rbv=   0.0000E+00


 time =   1.1978E-04
 mat.#=    1             inten=   3.2705E-08     kinen=   2.2529E-10     eroded_ie=   0.0000E+00     eroded_ke=   0.0000E+00
 x-mom=   5.4239E-09     y-mom=   5.4239E-09     z-mom=   0.0000E+00
 x-rbv=   1.5703E-02     y-rbv=   1.5703E-02     z-rbv=   0.0000E+00


 time =   1.2486E-04
 mat.#=    1             inten=   3.5959E-08     kinen=   7.0409E-11     eroded_ie=   0.0000E+00     eroded_ke=   0.0000E+00
 x-mom=   3.0789E-09     y-mom=   3.0789E-09     z-mom=   0.0000E+00
 x-rbv=   8.9140E-03     y-rbv=   8.9139E-03     z-rbv=   0.0000E+00


 time =   1.2995E-04
 mat.#=    1             inten=   3.7451E-08     kinen=   6.2269E-12     eroded_ie=   0.0000E+00     eroded_ke=   0.0000E+00
 x-mom=   1.0073E-09     y-mom=   1.0073E-09     z-mom=   0.0000E+00
 x-rbv=   2.9164E-03     y-rbv=   2.9164E-03     z-rbv=   0.0000E+00


 time =   1.3475E-04
 mat.#=    1             inten=   3.7827E-08     kinen=   3.9109E-15     eroded_ie=   0.0000E+00     eroded_ke=   0.0000E+00
 x-mom=   8.9452E-12     y-mom=   8.9298E-12     z-mom=   0.0000E+00
 x-rbv=   2.5898E-05     y-rbv=   2.5853E-05     z-rbv=   0.0000E+00


 time =   1.3983E-04
 mat.#=    1             inten=   3.8240E-08     kinen=   4.4384E-12     eroded_ie=   0.0000E+00     eroded_ke=   0.0000E+00
 x-mom=   8.3995E-10     y-mom=   8.3995E-10     z-mom=   0.0000E+00
 x-rbv=   2.4318E-03     y-rbv=   2.4318E-03     z-rbv=   0.0000E+00


 time =   1.4492E-04
 mat.#=    1             inten=   3.9721E-08     kinen=   6.1271E-11     eroded_ie=   0.0000E+00     eroded_ke=   0.0000E+00
 x-mom=   2.9193E-09     y-mom=   2.9193E-09     z-mom=   0.0000E+00
 x-rbv=   8.4519E-03     y-rbv=   8.4519E-03     z-rbv=   0.0000E+00


 time =   1.4972E-04
 mat.#=    1             inten=   4.2980E-08     kinen=   2.0068E-10     eroded_ie=   0.0000E+00     eroded_ke=   0.0000E+00
 x-mom=   5.0995E-09     y-mom=   5.0995E-09     z-mom=   0.0000E+00
 x-rbv=   1.4764E-02     y-rbv=   1.4764E-02     z-rbv=   0.0000E+00


 time =   1.5481E-04
 mat.#=    1             inten=   4.8258E-08     kinen=   3.5244E-10     eroded_ie=   0.0000E+00     eroded_ke=   0.0000E+00
 x-mom=   6.8907E-09     y-mom=   6.8907E-09     z-mom=   0.0000E+00
 x-rbv=   1.9950E-02     y-rbv=   1.9950E-02     z-rbv=   0.0000E+00


 time =   1.5989E-04
 mat.#=    1             inten=   5.4575E-08     kinen=   3.6107E-10     eroded_ie=   0.0000E+00     eroded_ke=   0.0000E+00
 x-mom=   6.8852E-09     y-mom=   6.8852E-09     z-mom=   0.0000E+00
 x-rbv=   1.9934E-02     y-rbv=   1.9934E-02     z-rbv=   0.0000E+00


 time =   1.6498E-04
 mat.#=    1             inten=   6.0644E-08     kinen=   2.1801E-10     eroded_ie=   0.0000E+00     eroded_ke=   0.0000E+00
 x-mom=   5.3332E-09     y-mom=   5.3333E-09     z-mom=   0.0000E+00
 x-rbv=   1.5441E-02     y-rbv=   1.5441E-02     z-rbv=   0.0000E+00


 time =   1.6978E-04
 mat.#=    1             inten=   6.4664E-08     kinen=   7.2381E-11     eroded_ie=   0.0000E+00     eroded_ke=   0.0000E+00
 x-mom=   3.1994E-09     y-mom=   3.1993E-09     z-mom=   0.0000E+00
 x-rbv=   9.2628E-03     y-rbv=   9.2627E-03     z-rbv=   0.0000E+00


 time =   1.7486E-04
 mat.#=    1             inten=   6.6726E-08     kinen=   6.1860E-12     eroded_ie=   0.0000E+00     eroded_ke=   0.0000E+00
 x-mom=   9.0402E-10     y-mom=   9.0405E-10     z-mom=   0.0000E+00
 x-rbv=   2.6173E-03     y-rbv=   2.6174E-03     z-rbv=   0.0000E+00


 time =   1.7995E-04
 mat.#=    1             inten=   6.7324E-08     kinen=   1.0975E-13     eroded_ie=   0.0000E+00     eroded_ke=   0.0000E+00
 x-mom=   8.2677E-11     y-mom=   8.2639E-11     z-mom=   0.0000E+00
 x-rbv=   2.3937E-04     y-rbv=   2.3926E-04     z-rbv=   0.0000E+00


 time =   1.8475E-04
 mat.#=    1             inten=   6.7716E-08     kinen=   4.2332E-12     eroded_ie=   0.0000E+00     eroded_ke=   0.0000E+00
 x-mom=   8.3505E-10     y-mom=   8.3507E-10     z-mom=   0.0000E+00
 x-rbv=   2.4176E-03     y-rbv=   2.4177E-03     z-rbv=   0.0000E+00


 time =   1.8984E-04
 mat.#=    1             inten=   6.9759E-08     kinen=   5.9560E-11     eroded_ie=   0.0000E+00     eroded_ke=   0.0000E+00
 x-mom=   2.7777E-09     y-mom=   2.7777E-09     z-mom=   0.0000E+00
 x-rbv=   8.0420E-03     y-rbv=   8.0419E-03     z-rbv=   0.0000E+00


 time =   1.9492E-04
 mat.#=    1             inten=   7.4329E-08     kinen=   2.0837E-10     eroded_ie=   0.0000E+00     eroded_ke=   0.0000E+00
 x-mom=   5.3054E-09     y-mom=   5.3054E-09     z-mom=   0.0000E+00
 x-rbv=   1.5360E-02     y-rbv=   1.5360E-02     z-rbv=   0.0000E+00


 time =   1.9972E-04
 mat.#=    1             inten=   8.0773E-08     kinen=   3.5070E-10     eroded_ie=   0.0000E+00     eroded_ke=   0.0000E+00
 x-mom=   6.8001E-09     y-mom=   6.8001E-09     z-mom=   0.0000E+00
 x-rbv=   1.9688E-02     y-rbv=   1.9687E-02     z-rbv=   0.0000E+00


 time =   2.0481E-04
 mat.#=    1             inten=   8.9040E-08     kinen=   3.6219E-10     eroded_ie=   0.0000E+00     eroded_ke=   0.0000E+00
 x-mom=   6.8599E-09     y-mom=   6.8599E-09     z-mom=   0.0000E+00
 x-rbv=   1.9861E-02     y-rbv=   1.9861E-02     z-rbv=   0.0000E+00


 time =   2.0989E-04
 mat.#=    1             inten=   9.6671E-08     kinen=   2.2080E-10     eroded_ie=   0.0000E+00     eroded_ke=   0.0000E+00
 x-mom=   5.4799E-09     y-mom=   5.4798E-09     z-mom=   0.0000E+00
 x-rbv=   1.5865E-02     y-rbv=   1.5865E-02     z-rbv=   0.0000E+00


 time =   2.1498E-04
 mat.#=    1             inten=   1.0197E-07     kinen=   6.7279E-11     eroded_ie=   0.0000E+00     eroded_ke=   0.0000E+00
 x-mom=   2.9966E-09     y-mom=   2.9965E-09     z-mom=   0.0000E+00
 x-rbv=   8.6756E-03     y-rbv=   8.6756E-03     z-rbv=   0.0000E+00


 time =   2.1978E-04
 mat.#=    1             inten=   1.0450E-07     kinen=   6.5669E-12     eroded_ie=   0.0000E+00     eroded_ke=   0.0000E+00
 x-mom=   9.7507E-10     y-mom=   9.7506E-10     z-mom=   0.0000E+00
 x-rbv=   2.8230E-03     y-rbv=   2.8230E-03     z-rbv=   0.0000E+00


 time =   2.2486E-04
 mat.#=    1             inten=   1.0510E-07     kinen=   3.7060E-13     eroded_ie=   0.0000E+00     eroded_ke=   0.0000E+00
 x-mom=   1.4305E-10     y-mom=   1.4300E-10     z-mom=   0.0000E+00
 x-rbv=   4.1416E-04     y-rbv=   4.1401E-04     z-rbv=   0.0000E+00


 time =   2.2995E-04
 mat.#=    1             inten=   1.0574E-07     kinen=   4.7167E-12     eroded_ie=   0.0000E+00     eroded_ke=   0.0000E+00
 x-mom=   7.8525E-10     y-mom=   7.8528E-10     z-mom=   0.0000E+00
 x-rbv=   2.2734E-03     y-rbv=   2.2735E-03     z-rbv=   0.0000E+00


 time =   2.3475E-04
 mat.#=    1             inten=   1.0822E-07     kinen=   5.8311E-11     eroded_ie=   0.0000E+00     eroded_ke=   0.0000E+00
 x-mom=   2.8408E-09     y-mom=   2.8408E-09     z-mom=   0.0000E+00
 x-rbv=   8.2247E-03     y-rbv=   8.2247E-03     z-rbv=   0.0000E+00


 time =   2.3984E-04
 mat.#=    1             inten=   1.1369E-07     kinen=   2.0577E-10     eroded_ie=   0.0000E+00     eroded_ke=   0.0000E+00
 x-mom=   5.2677E-09     y-mom=   5.2677E-09     z-mom=   0.0000E+00
 x-rbv=   1.5251E-02     y-rbv=   1.5251E-02     z-rbv=   0.0000E+00


 time =   2.4492E-04
 mat.#=    1             inten=   1.2230E-07     kinen=   3.5462E-10     eroded_ie=   0.0000E+00     eroded_ke=   0.0000E+00
 x-mom=   6.7724E-09     y-mom=   6.7724E-09     z-mom=   0.0000E+00
 x-rbv=   1.9607E-02     y-rbv=   1.9607E-02     z-rbv=   0.0000E+00


 time =   2.4972E-04
 mat.#=    1             inten=   1.3180E-07     kinen=   3.6371E-10     eroded_ie=   0.0000E+00     eroded_ke=   0.0000E+00
 x-mom=   6.9963E-09     y-mom=   6.9963E-09     z-mom=   0.0000E+00
 x-rbv=   2.0256E-02     y-rbv=   2.0256E-02     z-rbv=   0.0000E+00


 time =   2.5481E-04
 mat.#=    1             inten=   1.4100E-07     kinen=   2.2290E-10     eroded_ie=   0.0000E+00     eroded_ke=   0.0000E+00
 x-mom=   5.4217E-09     y-mom=   5.4217E-09     z-mom=   0.0000E+00
 x-rbv=   1.5697E-02     y-rbv=   1.5697E-02     z-rbv=   0.0000E+00


 time =   2.5989E-04
 mat.#=    1             inten=   1.4762E-07     kinen=   6.8808E-11     eroded_ie=   0.0000E+00     eroded_ke=   0.0000E+00
 x-mom=   3.0073E-09     y-mom=   3.0074E-09     z-mom=   0.0000E+00
 x-rbv=   8.7068E-03     y-rbv=   8.7069E-03     z-rbv=   0.0000E+00


 time =   2.6498E-04
 mat.#=    1             inten=   1.5064E-07     kinen=   5.9958E-12     eroded_ie=   0.0000E+00     eroded_ke=   0.0000E+00
 x-mom=   9.9763E-10     y-mom=   9.9764E-10     z-mom=   0.0000E+00
 x-rbv=   2.8883E-03     y-rbv=   2.8884E-03     z-rbv=   0.0000E+00


 time =   2.6978E-04
 mat.#=    1             inten=   1.5132E-07     kinen=   6.6518E-15     eroded_ie=   0.0000E+00     eroded_ke=   0.0000E+00
 x-mom=   1.9506E-11     y-mom=   1.9513E-11     z-mom=   0.0000E+00
 x-rbv=   5.6475E-05     y-rbv=   5.6495E-05     z-rbv=   0.0000E+00


 time =   2.7487E-04
 mat.#=    1             inten=   1.5219E-07     kinen=   4.5466E-12     eroded_ie=   0.0000E+00     eroded_ke=   0.0000E+00
 x-mom=   8.3660E-10     y-mom=   8.3658E-10     z-mom=   0.0000E+00
 x-rbv=   2.4221E-03     y-rbv=   2.4221E-03     z-rbv=   0.0000E+00


 time =   2.7995E-04
 mat.#=    1             inten=   1.5519E-07     kinen=   6.2794E-11     eroded_ie=   0.0000E+00     eroded_ke=   0.0000E+00
 x-mom=   2.9699E-09     y-mom=   2.9699E-09     z-mom=   0.0000E+00
 x-rbv=   8.5985E-03     y-rbv=   8.5985E-03     z-rbv=   0.0000E+00


 time =   2.8475E-04
 mat.#=    1             inten=   1.6155E-07     kinen=   2.0316E-10     eroded_ie=   0.0000E+00     eroded_ke=   0.0000E+00
 x-mom=   5.1286E-09     y-mom=   5.1286E-09     z-mom=   0.0000E+00
 x-rbv=   1.4848E-02     y-rbv=   1.4848E-02     z-rbv=   0.0000E+00


 time =   2.8984E-04
 mat.#=    1             inten=   1.7175E-07     kinen=   3.5362E-10     eroded_ie=   0.0000E+00     eroded_ke=   0.0000E+00
 x-mom=   6.8723E-09     y-mom=   6.8723E-09     z-mom=   0.0000E+00
 x-rbv=   1.9897E-02     y-rbv=   1.9897E-02     z-rbv=   0.0000E+00


 time =   2.9492E-04
 mat.#=    1             inten=   1.8348E-07     kinen=   3.6005E-10     eroded_ie=   0.0000E+00     eroded_ke=   0.0000E+00
 x-mom=   6.9140E-09     y-mom=   6.9140E-09     z-mom=   0.0000E+00
 x-rbv=   2.0017E-02     y-rbv=   2.0017E-02     z-rbv=   0.0000E+00


 time =   2.9973E-04
 mat.#=    1             inten=   1.9388E-07     kinen=   2.2532E-10     eroded_ie=   0.0000E+00     eroded_ke=   0.0000E+00
 x-mom=   5.4117E-09     y-mom=   5.4116E-09     z-mom=   0.0000E+00
 x-rbv=   1.5668E-02     y-rbv=   1.5668E-02     z-rbv=   0.0000E+00


 time =   3.0481E-04
 mat.#=    1             inten=   2.0155E-07     kinen=   7.0804E-11     eroded_ie=   0.0000E+00     eroded_ke=   0.0000E+00
 x-mom=   3.1591E-09     y-mom=   3.1591E-09     z-mom=   0.0000E+00
 x-rbv=   9.1462E-03     y-rbv=   9.1462E-03     z-rbv=   0.0000E+00


 time =   3.0990E-04
 mat.#=    1             inten=   2.0507E-07     kinen=   5.9210E-12     eroded_ie=   0.0000E+00     eroded_ke=   0.0000E+00
 x-mom=   9.2325E-10     y-mom=   9.2321E-10     z-mom=   0.0000E+00
 x-rbv=   2.6730E-03     y-rbv=   2.6729E-03     z-rbv=   0.0000E+00


 time =   3.1498E-04
 mat.#=    1             inten=   2.0610E-07     kinen=   2.8718E-14     eroded_ie=   0.0000E+00     eroded_ke=   0.0000E+00
 x-mom=   3.6277E-11     y-mom=   3.6291E-11     z-mom=   0.0000E+00
 x-rbv=   1.0503E-04     y-rbv=   1.0507E-04     z-rbv=   0.0000E+00


 time =   3.1978E-04
 mat.#=    1             inten=   2.0687E-07     kinen=   4.5968E-12     eroded_ie=   0.0000E+00     eroded_ke=   0.0000E+00
 x-mom=   8.8270E-10     y-mom=   8.8269E-10     z-mom=   0.0000E+00
 x-rbv=   2.5556E-03     y-rbv=   2.5556E-03     z-rbv=   0.0000E+00


 time =   3.2487E-04
 mat.#=    1             inten=   2.1040E-07     kinen=   6.0974E-11     eroded_ie=   0.0000E+00     eroded_ke=   0.0000E+00
 x-mom=   2.8105E-09     y-mom=   2.8105E-09     z-mom=   0.0000E+00
 x-rbv=   8.1371E-03     y-rbv=   8.1371E-03     z-rbv=   0.0000E+00


 time =   3.2995E-04
 mat.#=    1             inten=   2.1839E-07     kinen=   2.1051E-10     eroded_ie=   0.0000E+00     eroded_ke=   0.0000E+00
 x-mom=   5.3028E-09     y-mom=   5.3028E-09     z-mom=   0.0000E+00
 x-rbv=   1.5353E-02     y-rbv=   1.5353E-02     z-rbv=   0.0000E+00


 time =   3.3475E-04
 mat.#=    1             inten=   2.2938E-07     kinen=   3.5222E-10     eroded_ie=   0.0000E+00     eroded_ke=   0.0000E+00
 x-mom=   6.8572E-09     y-mom=   6.8572E-09     z-mom=   0.0000E+00
 x-rbv=   1.9853E-02     y-rbv=   1.9853E-02     z-rbv=   0.0000E+00


 time =   3.3984E-04
 mat.#=    1             inten=   2.4312E-07     kinen=   3.6104E-10     eroded_ie=   0.0000E+00     eroded_ke=   0.0000E+00
 x-mom=   6.8323E-09     y-mom=   6.8323E-09     z-mom=   0.0000E+00
 x-rbv=   1.9781E-02     y-rbv=   1.9781E-02     z-rbv=   0.0000E+00


 time =   3.4492E-04
 mat.#=    1             inten=   2.5567E-07     kinen=   2.1838E-10     eroded_ie=   0.0000E+00     eroded_ke=   0.0000E+00
 x-mom=   5.4414E-09     y-mom=   5.4414E-09     z-mom=   0.0000E+00
 x-rbv=   1.5754E-02     y-rbv=   1.5754E-02     z-rbv=   0.0000E+00


 time =   3.4973E-04
 mat.#=    1             inten=   2.6378E-07     kinen=   7.2081E-11     eroded_ie=   0.0000E+00     eroded_ke=   0.0000E+00
 x-mom=   3.1056E-09     y-mom=   3.1056E-09     z-mom=   0.0000E+00
 x-rbv=   8.9913E-03     y-rbv=   8.9913E-03     z-rbv=   0.0000E+00


 time =   3.5481E-04
 mat.#=    1             inten=   2.6811E-07     kinen=   6.2245E-12     eroded_ie=   0.0000E+00     eroded_ke=   0.0000E+00
 x-mom=   9.2271E-10     y-mom=   9.2265E-10     z-mom=   0.0000E+00
 x-rbv=   2.6714E-03     y-rbv=   2.6713E-03     z-rbv=   0.0000E+00


 time =   3.5990E-04
 mat.#=    1             inten=   2.6913E-07     kinen=   4.0769E-13     eroded_ie=   0.0000E+00     eroded_ke=   0.0000E+00
 x-mom=   1.4622E-10     y-mom=   1.4629E-10     z-mom=   0.0000E+00
 x-rbv=   4.2335E-04     y-rbv=   4.2353E-04     z-rbv=   0.0000E+00


 time =   3.6498E-04
 mat.#=    1             inten=   2.7009E-07     kinen=   4.9868E-12     eroded_ie=   0.0000E+00     eroded_ke=   0.0000E+00
 x-mom=   8.4009E-10     y-mom=   8.3999E-10     z-mom=   0.0000E+00
 x-rbv=   2.4322E-03     y-rbv=   2.4319E-03     z-rbv=   0.0000E+00


 time =   3.6978E-04
 mat.#=    1             inten=   2.7415E-07     kinen=   5.9582E-11     eroded_ie=   0.0000E+00     eroded_ke=   0.0000E+00
 x-mom=   2.8429E-09     y-mom=   2.8429E-09     z-mom=   0.0000E+00
 x-rbv=   8.2306E-03     y-rbv=   8.2308E-03     z-rbv=   0.0000E+00


 time =   3.7487E-04
 mat.#=    1             inten=   2.8291E-07     kinen=   2.0829E-10     eroded_ie=   0.0000E+00     eroded_ke=   0.0000E+00
 x-mom=   5.3155E-09     y-mom=   5.3155E-09     z-mom=   0.0000E+00
 x-rbv=   1.5390E-02     y-rbv=   1.5390E-02     z-rbv=   0.0000E+00


 time =   3.7995E-04
 mat.#=    1             inten=   2.9636E-07     kinen=   3.5600E-10     eroded_ie=   0.0000E+00     eroded_ke=   0.0000E+00
 x-mom=   6.7872E-09     y-mom=   6.7872E-09     z-mom=   0.0000E+00
 x-rbv=   1.9650E-02     y-rbv=   1.9650E-02     z-rbv=   0.0000E+00


 time =   3.8476E-04
 mat.#=    1             inten=   3.1113E-07     kinen=   3.6239E-10     eroded_ie=   0.0000E+00     eroded_ke=   0.0000E+00
 x-mom=   6.9518E-09     y-mom=   6.9518E-09     z-mom=   0.0000E+00
 x-rbv=   2.0127E-02     y-rbv=   2.0127E-02     z-rbv=   0.0000E+00


 time =   3.8984E-04
 mat.#=    1             inten=   3.2512E-07     kinen=   2.2070E-10     eroded_ie=   0.0000E+00     eroded_ke=   0.0000E+00
 x-mom=   5.4406E-09     y-mom=   5.4406E-09     z-mom=   0.0000E+00
 x-rbv=   1.5752E-02     y-rbv=   1.5752E-02     z-rbv=   0.0000E+00


 time =   3.9493E-04
 mat.#=    1             inten=   3.3500E-07     kinen=   6.7278E-11     eroded_ie=   0.0000E+00     eroded_ke=   0.0000E+00
 x-mom=   2.9521E-09     y-mom=   2.9521E-09     z-mom=   0.0000E+00
 x-rbv=   8.5468E-03     y-rbv=   8.5468E-03     z-rbv=   0.0000E+00


 time =   3.9973E-04
 mat.#=    1             inten=   3.3941E-07     kinen=   6.9124E-12     eroded_ie=   0.0000E+00     eroded_ke=   0.0000E+00
 x-mom=   1.0656E-09     y-mom=   1.0656E-09     z-mom=   0.0000E+00
 x-rbv=   3.0851E-03     y-rbv=   3.0851E-03     z-rbv=   0.0000E+00


 time =   4.0481E-04
 mat.#=    1             inten=   3.4049E-07     kinen=   4.5596E-14     eroded_ie=   0.0000E+00     eroded_ke=   0.0000E+00
 x-mom=   5.0411E-11     y-mom=   5.0432E-11     z-mom=   0.0000E+00
 x-rbv=   1.4595E-04     y-rbv=   1.4601E-04     z-rbv=   0.0000E+00


 time =   4.0990E-04
 mat.#=    1             inten=   3.4182E-07     kinen=   4.7367E-12     eroded_ie=   0.0000E+00     eroded_ke=   0.0000E+00
 x-mom=   8.1353E-10     y-mom=   8.1352E-10     z-mom=   0.0000E+00
 x-rbv=   2.3553E-03     y-rbv=   2.3553E-03     z-rbv=   0.0000E+00


 time =   4.1498E-04
 mat.#=    1             inten=   3.4645E-07     kinen=   6.4367E-11     eroded_ie=   0.0000E+00     eroded_ke=   0.0000E+00
 x-mom=   3.0237E-09     y-mom=   3.0238E-09     z-mom=   0.0000E+00
 x-rbv=   8.7543E-03     y-rbv=   8.7546E-03     z-rbv=   0.0000E+00


 time =   4.1978E-04
 mat.#=    1             inten=   3.5591E-07     kinen=   2.0543E-10     eroded_ie=   0.0000E+00     eroded_ke=   0.0000E+00
 x-mom=   5.1615E-09     y-mom=   5.1614E-09     z-mom=   0.0000E+00
 x-rbv=   1.4943E-02     y-rbv=   1.4943E-02     z-rbv=   0.0000E+00


 time =   4.2487E-04
 mat.#=    1             inten=   3.7108E-07     kinen=   3.5477E-10     eroded_ie=   0.0000E+00     eroded_ke=   0.0000E+00
 x-mom=   6.8575E-09     y-mom=   6.8575E-09     z-mom=   0.0000E+00
 x-rbv=   1.9854E-02     y-rbv=   1.9854E-02     z-rbv=   0.0000E+00


 time =   4.2995E-04
 mat.#=    1             inten=   3.8823E-07     kinen=   3.5895E-10     eroded_ie=   0.0000E+00     eroded_ke=   0.0000E+00
 x-mom=   6.9312E-09     y-mom=   6.9312E-09     z-mom=   0.0000E+00
 x-rbv=   2.0067E-02     y-rbv=   2.0067E-02     z-rbv=   0.0000E+00


 time =   4.3476E-04
 mat.#=    1             inten=   4.0317E-07     kinen=   2.2296E-10     eroded_ie=   0.0000E+00     eroded_ke=   0.0000E+00
 x-mom=   5.3721E-09     y-mom=   5.3720E-09     z-mom=   0.0000E+00
 x-rbv=   1.5553E-02     y-rbv=   1.5553E-02     z-rbv=   0.0000E+00


 time =   4.3984E-04
 mat.#=    1             inten=   4.1422E-07     kinen=   6.9152E-11     eroded_ie=   0.0000E+00     eroded_ke=   0.0000E+00
 x-mom=   3.1077E-09     y-mom=   3.1076E-09     z-mom=   0.0000E+00
 x-rbv=   8.9973E-03     y-rbv=   8.9971E-03     z-rbv=   0.0000E+00


 time =   4.4493E-04
 mat.#=    1             inten=   4.1914E-07     kinen=   5.7273E-12     eroded_ie=   0.0000E+00     eroded_ke=   0.0000E+00
 x-mom=   9.3043E-10     y-mom=   9.3041E-10     z-mom=   0.0000E+00
 x-rbv=   2.6938E-03     y-rbv=   2.6937E-03     z-rbv=   0.0000E+00


 time =   4.4973E-04
 mat.#=    1             inten=   4.2054E-07     kinen=   1.2612E-14     eroded_ie=   0.0000E+00     eroded_ke=   0.0000E+00
 x-mom=   2.8254E-11     y-mom=   2.8165E-11     z-mom=   0.0000E+00
 x-rbv=   8.1802E-05     y-rbv=   8.1542E-05     z-rbv=   0.0000E+00


 time =   4.5481E-04
 mat.#=    1             inten=   4.2176E-07     kinen=   4.8444E-12     eroded_ie=   0.0000E+00     eroded_ke=   0.0000E+00
 x-mom=   9.0277E-10     y-mom=   9.0277E-10     z-mom=   0.0000E+00
 x-rbv=   2.6137E-03     y-rbv=   2.6137E-03     z-rbv=   0.0000E+00


 time =   4.5990E-04
 mat.#=    1             inten=   4.2678E-07     kinen=   6.2432E-11     eroded_ie=   0.0000E+00     eroded_ke=   0.0000E+00
 x-mom=   2.8825E-09     y-mom=   2.8825E-09     z-mom=   0.0000E+00
 x-rbv=   8.3454E-03     y-rbv=   8.3453E-03     z-rbv=   0.0000E+00


 time =   4.6498E-04
 mat.#=    1             inten=   4.3824E-07     kinen=   2.1281E-10     eroded_ie=   0.0000E+00     eroded_ke=   0.0000E+00
 x-mom=   5.2902E-09     y-mom=   5.2902E-09     z-mom=   0.0000E+00
 x-rbv=   1.5316E-02     y-rbv=   1.5316E-02     z-rbv=   0.0000E+00


 time =   4.6979E-04
 mat.#=    1             inten=   4.5386E-07     kinen=   3.5368E-10     eroded_ie=   0.0000E+00     eroded_ke=   0.0000E+00
 x-mom=   6.8928E-09     y-mom=   6.8929E-09     z-mom=   0.0000E+00
 x-rbv=   1.9956E-02     y-rbv=   1.9956E-02     z-rbv=   0.0000E+00


 time =   4.7487E-04
 mat.#=    1             inten=   4.7300E-07     kinen=   3.5980E-10     eroded_ie=   0.0000E+00     eroded_ke=   0.0000E+00
 x-mom=   6.8232E-09     y-mom=   6.8232E-09     z-mom=   0.0000E+00
 x-rbv=   1.9755E-02     y-rbv=   1.9754E-02     z-rbv=   0.0000E+00


 time =   4.7996E-04
 mat.#=    1             inten=   4.9046E-07     kinen=   2.1584E-10     eroded_ie=   0.0000E+00     eroded_ke=   0.0000E+00
 x-mom=   5.3744E-09     y-mom=   5.3745E-09     z-mom=   0.0000E+00
 x-rbv=   1.5560E-02     y-rbv=   1.5560E-02     z-rbv=   0.0000E+00


 time =   4.8476E-04
 mat.#=    1             inten=   5.0157E-07     kinen=   7.0671E-11     eroded_ie=   0.0000E+00     eroded_ke=   0.0000E+00
 x-mom=   3.1237E-09     y-mom=   3.1237E-09     z-mom=   0.0000E+00
 x-rbv=   9.0436E-03     y-rbv=   9.0436E-03     z-rbv=   0.0000E+00


 time =   4.8984E-04
 mat.#=    1             inten=   5.0740E-07     kinen=   5.8871E-12     eroded_ie=   0.0000E+00     eroded_ke=   0.0000E+00
 x-mom=   8.7726E-10     y-mom=   8.7726E-10     z-mom=   0.0000E+00
 x-rbv=   2.5399E-03     y-rbv=   2.5398E-03     z-rbv=   0.0000E+00


 time =   4.9493E-04
 mat.#=    1             inten=   5.0888E-07     kinen=   3.4674E-13     eroded_ie=   0.0000E+00     eroded_ke=   0.0000E+00
 x-mom=   1.3960E-10     y-mom=   1.3959E-10     z-mom=   0.0000E+00
 x-rbv=   4.0417E-04     y-rbv=   4.0413E-04     z-rbv=   0.0000E+00


 time =   4.9973E-04
 mat.#=    1             inten=   5.1000E-07     kinen=   4.2510E-12     eroded_ie=   0.0000E+00     eroded_ke=   0.0000E+00
 x-mom=   7.8340E-10     y-mom=   7.8345E-10     z-mom=   0.0000E+00
 x-rbv=   2.2681E-03     y-rbv=   2.2682E-03     z-rbv=   0.0000E+00


 time =   5.0482E-04
 mat.#=    1             inten=   5.1579E-07     kinen=   6.0952E-11     eroded_ie=   0.0000E+00     eroded_ke=   0.0000E+00
 x-mom=   2.8382E-09     y-mom=   2.8382E-09     z-mom=   0.0000E+00
 x-rbv=   8.2172E-03     y-rbv=   8.2171E-03     z-rbv=   0.0000E+00


 time =   5.0990E-04
 mat.#=    1             inten=   5.2797E-07     kinen=   2.1069E-10     eroded_ie=   0.0000E+00     eroded_ke=   0.0000E+00
 x-mom=   5.3614E-09     y-mom=   5.3615E-09     z-mom=   0.0000E+00
 x-rbv=   1.5522E-02     y-rbv=   1.5522E-02     z-rbv=   0.0000E+00


 time =   5.1499E-04
 mat.#=    1             inten=   5.4624E-07     kinen=   3.5714E-10     eroded_ie=   0.0000E+00     eroded_ke=   0.0000E+00
 x-mom=   6.8196E-09     y-mom=   6.8196E-09     z-mom=   0.0000E+00
 x-rbv=   1.9744E-02     y-rbv=   1.9744E-02     z-rbv=   0.0000E+00


 time =   5.1979E-04
 mat.#=    1             inten=   5.6629E-07     kinen=   3.6116E-10     eroded_ie=   0.0000E+00     eroded_ke=   0.0000E+00
 x-mom=   6.9156E-09     y-mom=   6.9155E-09     z-mom=   0.0000E+00
 x-rbv=   2.0022E-02     y-rbv=   2.0022E-02     z-rbv=   0.0000E+00


 time =   5.2487E-04
 mat.#=    1             inten=   5.8506E-07     kinen=   2.1842E-10     eroded_ie=   0.0000E+00     eroded_ke=   0.0000E+00
 x-mom=   5.4326E-09     y-mom=   5.4326E-09     z-mom=   0.0000E+00
 x-rbv=   1.5728E-02     y-rbv=   1.5728E-02     z-rbv=   0.0000E+00


 time =   5.2996E-04
 mat.#=    1             inten=   5.9809E-07     kinen=   6.5762E-11     eroded_ie=   0.0000E+00     eroded_ke=   0.0000E+00
 x-mom=   2.9195E-09     y-mom=   2.9195E-09     z-mom=   0.0000E+00
 x-rbv=   8.4525E-03     y-rbv=   8.4524E-03     z-rbv=   0.0000E+00


 time =   5.3476E-04
 mat.#=    1             inten=   6.0402E-07     kinen=   6.5036E-12     eroded_ie=   0.0000E+00     eroded_ke=   0.0000E+00
 x-mom=   1.0157E-09     y-mom=   1.0157E-09     z-mom=   0.0000E+00
 x-rbv=   2.9408E-03     y-rbv=   2.9407E-03     z-rbv=   0.0000E+00


 time =   5.3984E-04
 mat.#=    1             inten=   6.0538E-07     kinen=   1.3770E-13     eroded_ie=   0.0000E+00     eroded_ke=   0.0000E+00
 x-mom=   8.9007E-11     y-mom=   8.9089E-11     z-mom=   0.0000E+00
 x-rbv=   2.5769E-04     y-rbv=   2.5793E-04     z-rbv=   0.0000E+00


 time =   5.4493E-04
 mat.#=    1             inten=   6.0714E-07     kinen=   4.9571E-12     eroded_ie=   0.0000E+00     eroded_ke=   0.0000E+00
 x-mom=   8.1347E-10     y-mom=   8.1343E-10     z-mom=   0.0000E+00
 x-rbv=   2.3551E-03     y-rbv=   2.3550E-03     z-rbv=   0.0000E+00


 time =   5.4973E-04
 mat.#=    1             inten=   6.1293E-07     kinen=   5.9858E-11     eroded_ie=   0.0000E+00     eroded_ke=   0.0000E+00
 x-mom=   2.9170E-09     y-mom=   2.9170E-09     z-mom=   0.0000E+00
 x-rbv=   8.4453E-03     y-rbv=   8.4453E-03     z-rbv=   0.0000E+00


 time =   5.5482E-04
 mat.#=    1             inten=   6.2604E-07     kinen=   2.0789E-10     eroded_ie=   0.0000E+00     eroded_ke=   0.0000E+00
 x-mom=   5.2260E-09     y-mom=   5.2260E-09     z-mom=   0.0000E+00
 x-rbv=   1.5130E-02     y-rbv=   1.5130E-02     z-rbv=   0.0000E+00


 time =   5.5990E-04
 mat.#=    1             inten=   6.4620E-07     kinen=   3.5596E-10     eroded_ie=   0.0000E+00     eroded_ke=   0.0000E+00
 x-mom=   6.8236E-09     y-mom=   6.8236E-09     z-mom=   0.0000E+00
 x-rbv=   1.9756E-02     y-rbv=   1.9756E-02     z-rbv=   0.0000E+00


 time =   5.6499E-04
 mat.#=    1             inten=   6.6887E-07     kinen=   3.5782E-10     eroded_ie=   0.0000E+00     eroded_ke=   0.0000E+00
 x-mom=   6.9443E-09     y-mom=   6.9442E-09     z-mom=   0.0000E+00
 x-rbv=   2.0105E-02     y-rbv=   2.0105E-02     z-rbv=   0.0000E+00


 time =   5.6979E-04
 mat.#=    1             inten=   6.8824E-07     kinen=   2.2059E-10     eroded_ie=   0.0000E+00     eroded_ke=   0.0000E+00
 x-mom=   5.3408E-09     y-mom=   5.3409E-09     z-mom=   0.0000E+00
 x-rbv=   1.5463E-02     y-rbv=   1.5463E-02     z-rbv=   0.0000E+00


 time =   5.7487E-04
 mat.#=    1             inten=   7.0263E-07     kinen=   6.7501E-11     eroded_ie=   0.0000E+00     eroded_ke=   0.0000E+00
 x-mom=   3.0453E-09     y-mom=   3.0452E-09     z-mom=   0.0000E+00
 x-rbv=   8.8168E-03     y-rbv=   8.8164E-03     z-rbv=   0.0000E+00


 time =   5.7996E-04
 mat.#=    1             inten=   7.0894E-07     kinen=   5.5704E-12     eroded_ie=   0.0000E+00     eroded_ke=   0.0000E+00
 x-mom=   9.4810E-10     y-mom=   9.4815E-10     z-mom=   0.0000E+00
 x-rbv=   2.7449E-03     y-rbv=   2.7451E-03     z-rbv=   0.0000E+00


 time =   5.8476E-04
 mat.#=    1             inten=   7.1063E-07     kinen=   1.2313E-15     eroded_ie=   0.0000E+00     eroded_ke=   0.0000E+00
 x-mom=   7.6055E-12     y-mom=   7.5164E-12     z-mom=   0.0000E+00
 x-rbv=   2.2019E-05     y-rbv=   2.1761E-05     z-rbv=   0.0000E+00


 time =   5.8985E-04
 mat.#=    1             inten=   7.1238E-07     kinen=   5.0364E-12     eroded_ie=   0.0000E+00     eroded_ke=   0.0000E+00
 x-mom=   9.1441E-10     y-mom=   9.1443E-10     z-mom=   0.0000E+00
 x-rbv=   2.6474E-03     y-rbv=   2.6474E-03     z-rbv=   0.0000E+00


 time =   5.9493E-04
 mat.#=    1             inten=   7.1893E-07     kinen=   6.3992E-11     eroded_ie=   0.0000E+00     eroded_ke=   0.0000E+00
 x-mom=   2.9381E-09     y-mom=   2.9382E-09     z-mom=   0.0000E+00
 x-rbv=   8.5065E-03     y-rbv=   8.5067E-03     z-rbv=   0.0000E+00


 time =   5.9973E-04
 mat.#=    1             inten=   7.3284E-07     kinen=   2.0538E-10     eroded_ie=   0.0000E+00     eroded_ke=   0.0000E+00
 x-mom=   5.1848E-09     y-mom=   5.1847E-09     z-mom=   0.0000E+00
 x-rbv=   1.5011E-02     y-rbv=   1.5011E-02     z-rbv=   0.0000E+00


 time =   6.0482E-04
 mat.#=    1             inten=   7.5421E-07     kinen=   3.5494E-10     eroded_ie=   0.0000E+00     eroded_ke=   0.0000E+00
 x-mom=   6.9142E-09     y-mom=   6.9143E-09     z-mom=   0.0000E+00
 x-rbv=   2.0018E-02     y-rbv=   2.0018E-02     z-rbv=   0.0000E+00


 time =   6.0990E-04
 mat.#=    1             inten=   7.7870E-07     kinen=   3.5870E-10     eroded_ie=   0.0000E+00     eroded_ke=   0.0000E+00
 x-mom=   6.8409E-09     y-mom=   6.8408E-09     z-mom=   0.0000E+00
 x-rbv=   1.9806E-02     y-rbv=   1.9805E-02     z-rbv=   0.0000E+00


 time =   6.1499E-04
 mat.#=    1             inten=   8.0103E-07     kinen=   2.1334E-10     eroded_ie=   0.0000E+00     eroded_ke=   0.0000E+00
 x-mom=   5.3100E-09     y-mom=   5.3101E-09     z-mom=   0.0000E+00
 x-rbv=   1.5373E-02     y-rbv=   1.5374E-02     z-rbv=   0.0000E+00


 time =   6.1979E-04
 mat.#=    1             inten=   8.1516E-07     kinen=   6.9219E-11     eroded_ie=   0.0000E+00     eroded_ke=   0.0000E+00
 x-mom=   3.1113E-09     y-mom=   3.1112E-09     z-mom=   0.0000E+00
 x-rbv=   9.0079E-03     y-rbv=   9.0075E-03     z-rbv=   0.0000E+00


 time =   6.2487E-04
 mat.#=    1             inten=   8.2235E-07     kinen=   5.6213E-12     eroded_ie=   0.0000E+00     eroded_ke=   0.0000E+00
 x-mom=   8.5498E-10     y-mom=   8.5515E-10     z-mom=   0.0000E+00
 x-rbv=   2.4753E-03     y-rbv=   2.4758E-03     z-rbv=   0.0000E+00


 time =   6.2996E-04
 mat.#=    1             inten=   8.2431E-07     kinen=   2.1108E-13     eroded_ie=   0.0000E+00     eroded_ke=   0.0000E+00
 x-mom=   1.0373E-10     y-mom=   1.0354E-10     z-mom=   0.0000E+00
 x-rbv=   3.0031E-04     y-rbv=   2.9977E-04     z-rbv=   0.0000E+00


 time =   6.3476E-04
 mat.#=    1             inten=   8.2575E-07     kinen=   4.5844E-12     eroded_ie=   0.0000E+00     eroded_ke=   0.0000E+00
 x-mom=   8.5294E-10     y-mom=   8.5310E-10     z-mom=   0.0000E+00
 x-rbv=   2.4694E-03     y-rbv=   2.4699E-03     z-rbv=   0.0000E+00


 time =   6.3985E-04
 mat.#=    1             inten=   8.3314E-07     kinen=   6.2348E-11     eroded_ie=   0.0000E+00     eroded_ke=   0.0000E+00
 x-mom=   2.8465E-09     y-mom=   2.8464E-09     z-mom=   0.0000E+00
 x-rbv=   8.2412E-03     y-rbv=   8.2410E-03     z-rbv=   0.0000E+00


 time =   6.4493E-04
 mat.#=    1             inten=   8.4886E-07     kinen=   2.1305E-10     eroded_ie=   0.0000E+00     eroded_ke=   0.0000E+00
 x-mom=   5.3838E-09     y-mom=   5.3838E-09     z-mom=   0.0000E+00
 x-rbv=   1.5587E-02     y-rbv=   1.5587E-02     z-rbv=   0.0000E+00


 time =   6.4973E-04
 mat.#=    1             inten=   8.7052E-07     kinen=   3.5326E-10     eroded_ie=   0.0000E+00     eroded_ke=   0.0000E+00
 x-mom=   6.7984E-09     y-mom=   6.7984E-09     z-mom=   0.0000E+00
 x-rbv=   1.9683E-02     y-rbv=   1.9683E-02     z-rbv=   0.0000E+00


 time =   6.5482E-04
 mat.#=    1             inten=   8.9724E-07     kinen=   3.5987E-10     eroded_ie=   0.0000E+00     eroded_ke=   0.0000E+00
 x-mom=   6.8603E-09     y-mom=   6.8602E-09     z-mom=   0.0000E+00
 x-rbv=   1.9862E-02     y-rbv=   1.9862E-02     z-rbv=   0.0000E+00


 time =   6.5990E-04
 mat.#=    1             inten=   9.2086E-07     kinen=   2.1617E-10     eroded_ie=   0.0000E+00     eroded_ke=   0.0000E+00
 x-mom=   5.4281E-09     y-mom=   5.4282E-09     z-mom=   0.0000E+00
 x-rbv=   1.5715E-02     y-rbv=   1.5716E-02     z-rbv=   0.0000E+00


 time =   6.6499E-04
 mat.#=    1             inten=   9.3692E-07     kinen=   6.4272E-11     eroded_ie=   0.0000E+00     eroded_ke=   0.0000E+00
 x-mom=   2.8976E-09     y-mom=   2.8974E-09     z-mom=   0.0000E+00
 x-rbv=   8.3892E-03     y-rbv=   8.3886E-03     z-rbv=   0.0000E+00


 time =   6.6979E-04
 mat.#=    1             inten=   9.4432E-07     kinen=   6.0620E-12     eroded_ie=   0.0000E+00     eroded_ke=   0.0000E+00
 x-mom=   9.6805E-10     y-mom=   9.6825E-10     z-mom=   0.0000E+00
 x-rbv=   2.8027E-03     y-rbv=   2.8033E-03     z-rbv=   0.0000E+00


 time =   6.7488E-04
 mat.#=    1             inten=   9.4598E-07     kinen=   2.6794E-13     eroded_ie=   0.0000E+00     eroded_ke=   0.0000E+00
 x-mom=   1.1926E-10     y-mom=   1.1906E-10     z-mom=   0.0000E+00
 x-rbv=   3.4529E-04     y-rbv=   3.4470E-04     z-rbv=   0.0000E+00


 time =   6.7996E-04
 mat.#=    1             inten=   9.4810E-07     kinen=   5.2402E-12     eroded_ie=   0.0000E+00     eroded_ke=   0.0000E+00
 x-mom=   8.2620E-10     y-mom=   8.2641E-10     z-mom=   0.0000E+00
 x-rbv=   2.3920E-03     y-rbv=   2.3926E-03     z-rbv=   0.0000E+00


 time =   6.8476E-04
 mat.#=    1             inten=   9.5561E-07     kinen=   6.1225E-11     eroded_ie=   0.0000E+00     eroded_ke=   0.0000E+00
 x-mom=   2.9343E-09     y-mom=   2.9341E-09     z-mom=   0.0000E+00
 x-rbv=   8.4953E-03     y-rbv=   8.4949E-03     z-rbv=   0.0000E+00


 time =   6.8985E-04
 mat.#=    1             inten=   9.7201E-07     kinen=   2.1029E-10     eroded_ie=   0.0000E+00     eroded_ke=   0.0000E+00
 x-mom=   5.2851E-09     y-mom=   5.2852E-09     z-mom=   0.0000E+00
 x-rbv=   1.5301E-02     y-rbv=   1.5302E-02     z-rbv=   0.0000E+00


 time =   6.9493E-04
 mat.#=    1             inten=   9.9713E-07     kinen=   3.5709E-10     eroded_ie=   0.0000E+00     eroded_ke=   0.0000E+00
 x-mom=   6.8135E-09     y-mom=   6.8134E-09     z-mom=   0.0000E+00
 x-rbv=   1.9726E-02     y-rbv=   1.9726E-02     z-rbv=   0.0000E+00


 time =   6.9974E-04
 mat.#=    1             inten=   1.0238E-06     kinen=   3.6144E-10     eroded_ie=   0.0000E+00     eroded_ke=   0.0000E+00
 x-mom=   6.9751E-09     y-mom=   6.9751E-09     z-mom=   0.0000E+00
 x-rbv=   2.0194E-02     y-rbv=   2.0194E-02     z-rbv=   0.0000E+00


 time =   7.0482E-04
 mat.#=    1             inten=   1.0491E-06     kinen=   2.1816E-10     eroded_ie=   0.0000E+00     eroded_ke=   0.0000E+00
 x-mom=   5.3462E-09     y-mom=   5.3463E-09     z-mom=   0.0000E+00
 x-rbv=   1.5478E-02     y-rbv=   1.5479E-02     z-rbv=   0.0000E+00


 time =   7.0991E-04
 mat.#=    1             inten=   1.0668E-06     kinen=   6.5856E-11     eroded_ie=   0.0000E+00     eroded_ke=   0.0000E+00
 x-mom=   2.9697E-09     y-mom=   2.9695E-09     z-mom=   0.0000E+00
 x-rbv=   8.5978E-03     y-rbv=   8.5973E-03     z-rbv=   0.0000E+00


 time =   7.1499E-04
 mat.#=    1             inten=   1.0745E-06     kinen=   5.4205E-12     eroded_ie=   0.0000E+00     eroded_ke=   0.0000E+00
 x-mom=   9.4667E-10     y-mom=   9.4679E-10     z-mom=   0.0000E+00
 x-rbv=   2.7408E-03     y-rbv=   2.7411E-03     z-rbv=   0.0000E+00


 time =   7.1979E-04
 mat.#=    1             inten=   1.0764E-06     kinen=   3.8689E-15     eroded_ie=   0.0000E+00     eroded_ke=   0.0000E+00
 x-mom=   5.0697E-12     y-mom=   4.9608E-12     z-mom=   0.0000E+00
 x-rbv=   1.4678E-05     y-rbv=   1.4363E-05     z-rbv=   0.0000E+00


 time =   7.2488E-04
 mat.#=    1             inten=   1.0787E-06     kinen=   5.1552E-12     eroded_ie=   0.0000E+00     eroded_ke=   0.0000E+00
 x-mom=   9.0302E-10     y-mom=   9.0321E-10     z-mom=   0.0000E+00
 x-rbv=   2.6144E-03     y-rbv=   2.6150E-03     z-rbv=   0.0000E+00


 time =   7.2996E-04
 mat.#=    1             inten=   1.0869E-06     kinen=   6.5578E-11     eroded_ie=   0.0000E+00     eroded_ke=   0.0000E+00
 x-mom=   3.0203E-09     y-mom=   3.0203E-09     z-mom=   0.0000E+00
 x-rbv=   8.7445E-03     y-rbv=   8.7443E-03     z-rbv=   0.0000E+00


 time =   7.3476E-04
 mat.#=    1             inten=   1.1040E-06     kinen=   2.0774E-10     eroded_ie=   0.0000E+00     eroded_ke=   0.0000E+00
 x-mom=   5.1872E-09     y-mom=   5.1874E-09     z-mom=   0.0000E+00
 x-rbv=   1.5018E-02     y-rbv=   1.5019E-02     z-rbv=   0.0000E+00


 time =   7.3985E-04
 mat.#=    1             inten=   1.1304E-06     kinen=   3.5624E-10     eroded_ie=   0.0000E+00     eroded_ke=   0.0000E+00
 x-mom=   6.9217E-09     y-mom=   6.9217E-09     z-mom=   0.0000E+00
 x-rbv=   2.0040E-02     y-rbv=   2.0040E-02     z-rbv=   0.0000E+00


 time =   7.4493E-04
 mat.#=    1             inten=   1.1602E-06     kinen=   3.5747E-10     eroded_ie=   0.0000E+00     eroded_ke=   0.0000E+00
 x-mom=   6.8519E-09     y-mom=   6.8521E-09     z-mom=   0.0000E+00
 x-rbv=   1.9838E-02     y-rbv=   1.9838E-02     z-rbv=   0.0000E+00


 time =   7.4974E-04
 mat.#=    1             inten=   1.1861E-06     kinen=   2.2070E-10     eroded_ie=   0.0000E+00     eroded_ke=   0.0000E+00
 x-mom=   5.3800E-09     y-mom=   5.3800E-09     z-mom=   0.0000E+00
 x-rbv=   1.5576E-02     y-rbv=   1.5576E-02     z-rbv=   0.0000E+00


 time =   7.5482E-04
 mat.#=    1             inten=   1.2045E-06     kinen=   6.7798E-11     eroded_ie=   0.0000E+00     eroded_ke=   0.0000E+00
 x-mom=   3.0981E-09     y-mom=   3.0980E-09     z-mom=   0.0000E+00
 x-rbv=   8.9695E-03     y-rbv=   8.9694E-03     z-rbv=   0.0000E+00


 time =   7.5991E-04
 mat.#=    1             inten=   1.2130E-06     kinen=   5.3256E-12     eroded_ie=   0.0000E+00     eroded_ke=   0.0000E+00
 x-mom=   8.5052E-10     y-mom=   8.5070E-10     z-mom=   0.0000E+00
 x-rbv=   2.4624E-03     y-rbv=   2.4629E-03     z-rbv=   0.0000E+00


 time =   7.6499E-04
 mat.#=    1             inten=   1.2154E-06     kinen=   9.4971E-14     eroded_ie=   0.0000E+00     eroded_ke=   0.0000E+00
 x-mom=   7.6681E-11     y-mom=   7.6617E-11     z-mom=   0.0000E+00
 x-rbv=   2.2201E-04     y-rbv=   2.2182E-04     z-rbv=   0.0000E+00


 time =   7.6979E-04
 mat.#=    1             inten=   1.2172E-06     kinen=   4.9692E-12     eroded_ie=   0.0000E+00     eroded_ke=   0.0000E+00
 x-mom=   8.9464E-10     y-mom=   8.9477E-10     z-mom=   0.0000E+00
 x-rbv=   2.5902E-03     y-rbv=   2.5905E-03     z-rbv=   0.0000E+00


 time =   7.7488E-04
 mat.#=    1             inten=   1.2262E-06     kinen=   6.3864E-11     eroded_ie=   0.0000E+00     eroded_ke=   0.0000E+00
 x-mom=   2.8768E-09     y-mom=   2.8767E-09     z-mom=   0.0000E+00
 x-rbv=   8.3289E-03     y-rbv=   8.3287E-03     z-rbv=   0.0000E+00


 time =   7.7996E-04
 mat.#=    1             inten=   1.2456E-06     kinen=   2.1526E-10     eroded_ie=   0.0000E+00     eroded_ke=   0.0000E+00
 x-mom=   5.3835E-09     y-mom=   5.3835E-09     z-mom=   0.0000E+00
 x-rbv=   1.5586E-02     y-rbv=   1.5586E-02     z-rbv=   0.0000E+00


 time =   7.8477E-04
 mat.#=    1             inten=   1.2718E-06     kinen=   3.5466E-10     eroded_ie=   0.0000E+00     eroded_ke=   0.0000E+00
 x-mom=   6.8497E-09     y-mom=   6.8496E-09     z-mom=   0.0000E+00
 x-rbv=   1.9831E-02     y-rbv=   1.9831E-02     z-rbv=   0.0000E+00


 time =   7.8985E-04
 mat.#=    1             inten=   1.3040E-06     kinen=   3.5870E-10     eroded_ie=   0.0000E+00     eroded_ke=   0.0000E+00
 x-mom=   6.8256E-09     y-mom=   6.8256E-09     z-mom=   0.0000E+00
 x-rbv=   1.9762E-02     y-rbv=   1.9762E-02     z-rbv=   0.0000E+00


 time =   7.9494E-04
 mat.#=    1             inten=   1.3325E-06     kinen=   2.1368E-10     eroded_ie=   0.0000E+00     eroded_ke=   0.0000E+00
 x-mom=   5.3923E-09     y-mom=   5.3922E-09     z-mom=   0.0000E+00
 x-rbv=   1.5612E-02     y-rbv=   1.5611E-02     z-rbv=   0.0000E+00


 time =   7.9974E-04
 mat.#=    1             inten=   1.3507E-06     kinen=   6.8979E-11     eroded_ie=   0.0000E+00     eroded_ke=   0.0000E+00
 x-mom=   3.0229E-09     y-mom=   3.0228E-09     z-mom=   0.0000E+00
 x-rbv=   8.7519E-03     y-rbv=   8.7516E-03     z-rbv=   0.0000E+00


 time =   8.0482E-04
 mat.#=    1             inten=   1.3603E-06     kinen=   5.6747E-12     eroded_ie=   0.0000E+00     eroded_ke=   0.0000E+00
 x-mom=   8.9958E-10     y-mom=   8.9955E-10     z-mom=   0.0000E+00
 x-rbv=   2.6045E-03     y-rbv=   2.6044E-03     z-rbv=   0.0000E+00


 time =   8.0991E-04
 mat.#=    1             inten=   1.3624E-06     kinen=   3.7537E-13     eroded_ie=   0.0000E+00     eroded_ke=   0.0000E+00
 x-mom=   1.4620E-10     y-mom=   1.4598E-10     z-mom=   0.0000E+00
 x-rbv=   4.2327E-04     y-rbv=   4.2265E-04     z-rbv=   0.0000E+00


 time =   8.1499E-04
 mat.#=    1             inten=   1.3648E-06     kinen=   5.5169E-12     eroded_ie=   0.0000E+00     eroded_ke=   0.0000E+00
 x-mom=   8.5375E-10     y-mom=   8.5371E-10     z-mom=   0.0000E+00
 x-rbv=   2.4718E-03     y-rbv=   2.4716E-03     z-rbv=   0.0000E+00


 time =   8.1980E-04
 mat.#=    1             inten=   1.3740E-06     kinen=   6.2497E-11     eroded_ie=   0.0000E+00     eroded_ke=   0.0000E+00
 x-mom=   2.9410E-09     y-mom=   2.9410E-09     z-mom=   0.0000E+00
 x-rbv=   8.5147E-03     y-rbv=   8.5147E-03     z-rbv=   0.0000E+00


 time =   8.2488E-04
 mat.#=    1             inten=   1.3938E-06     kinen=   2.1284E-10     eroded_ie=   0.0000E+00     eroded_ke=   0.0000E+00
 x-mom=   5.3541E-09     y-mom=   5.3540E-09     z-mom=   0.0000E+00
 x-rbv=   1.5501E-02     y-rbv=   1.5501E-02     z-rbv=   0.0000E+00


 time =   8.2996E-04
 mat.#=    1             inten=   1.4238E-06     kinen=   3.5833E-10     eroded_ie=   0.0000E+00     eroded_ke=   0.0000E+00
 x-mom=   6.8065E-09     y-mom=   6.8065E-09     z-mom=   0.0000E+00
 x-rbv=   1.9706E-02     y-rbv=   1.9706E-02     z-rbv=   0.0000E+00


 time =   8.3477E-04
 mat.#=    1             inten=   1.4558E-06     kinen=   3.6021E-10     eroded_ie=   0.0000E+00     eroded_ke=   0.0000E+00
 x-mom=   6.9574E-09     y-mom=   6.9574E-09     z-mom=   0.0000E+00
 x-rbv=   2.0143E-02     y-rbv=   2.0143E-02     z-rbv=   0.0000E+00


 time =   8.3985E-04
 mat.#=    1             inten=   1.4857E-06     kinen=   2.1587E-10     eroded_ie=   0.0000E+00     eroded_ke=   0.0000E+00
 x-mom=   5.3388E-09     y-mom=   5.3387E-09     z-mom=   0.0000E+00
 x-rbv=   1.5457E-02     y-rbv=   1.5456E-02     z-rbv=   0.0000E+00


 time =   8.4494E-04
 mat.#=    1             inten=   1.5066E-06     kinen=   6.4346E-11     eroded_ie=   0.0000E+00     eroded_ke=   0.0000E+00
 x-mom=   2.9106E-09     y-mom=   2.9109E-09     z-mom=   0.0000E+00
 x-rbv=   8.4266E-03     y-rbv=   8.4276E-03     z-rbv=   0.0000E+00


 time =   8.4974E-04
 mat.#=    1             inten=   1.5155E-06     kinen=   6.3169E-12     eroded_ie=   0.0000E+00     eroded_ke=   0.0000E+00
 x-mom=   1.0201E-09     y-mom=   1.0200E-09     z-mom=   0.0000E+00
 x-rbv=   2.9535E-03     y-rbv=   2.9532E-03     z-rbv=   0.0000E+00


 time =   8.5482E-04
 mat.#=    1             inten=   1.5178E-06     kinen=   1.0686E-14     eroded_ie=   0.0000E+00     eroded_ke=   0.0000E+00
 x-mom=   3.0268E-11     y-mom=   3.0397E-11     z-mom=   0.0000E+00
 x-rbv=   8.7632E-05     y-rbv=   8.8004E-05     z-rbv=   0.0000E+00


 time =   8.5991E-04
 mat.#=    1             inten=   1.5207E-06     kinen=   5.3183E-12     eroded_ie=   0.0000E+00     eroded_ke=   0.0000E+00
 x-mom=   8.8881E-10     y-mom=   8.8897E-10     z-mom=   0.0000E+00
 x-rbv=   2.5733E-03     y-rbv=   2.5737E-03     z-rbv=   0.0000E+00


 time =   8.6499E-04
 mat.#=    1             inten=   1.5306E-06     kinen=   6.7229E-11     eroded_ie=   0.0000E+00     eroded_ke=   0.0000E+00
 x-mom=   3.0709E-09     y-mom=   3.0710E-09     z-mom=   0.0000E+00
 x-rbv=   8.8910E-03     y-rbv=   8.8910E-03     z-rbv=   0.0000E+00


 time =   8.6980E-04
 mat.#=    1             inten=   1.5509E-06     kinen=   2.1012E-10     eroded_ie=   0.0000E+00     eroded_ke=   0.0000E+00
 x-mom=   5.2145E-09     y-mom=   5.2145E-09     z-mom=   0.0000E+00
 x-rbv=   1.5097E-02     y-rbv=   1.5097E-02     z-rbv=   0.0000E+00


 time =   8.7488E-04
 mat.#=    1             inten=   1.5825E-06     kinen=   3.5728E-10     eroded_ie=   0.0000E+00     eroded_ke=   0.0000E+00
 x-mom=   6.9016E-09     y-mom=   6.9017E-09     z-mom=   0.0000E+00
 x-rbv=   1.9981E-02     y-rbv=   1.9982E-02     z-rbv=   0.0000E+00


 time =   8.7997E-04
 mat.#=    1             inten=   1.6177E-06     kinen=   3.5642E-10     eroded_ie=   0.0000E+00     eroded_ke=   0.0000E+00
 x-mom=   6.8899E-09     y-mom=   6.8898E-09     z-mom=   0.0000E+00
 x-rbv=   1.9948E-02     y-rbv=   1.9947E-02     z-rbv=   0.0000E+00


 time =   8.8477E-04
 mat.#=    1             inten=   1.6479E-06     kinen=   2.1816E-10     eroded_ie=   0.0000E+00     eroded_ke=   0.0000E+00
 x-mom=   5.3226E-09     y-mom=   5.3226E-09     z-mom=   0.0000E+00
 x-rbv=   1.5410E-02     y-rbv=   1.5410E-02     z-rbv=   0.0000E+00


 time =   8.8985E-04
 mat.#=    1             inten=   1.6697E-06     kinen=   6.6239E-11     eroded_ie=   0.0000E+00     eroded_ke=   0.0000E+00
 x-mom=   3.0606E-09     y-mom=   3.0607E-09     z-mom=   0.0000E+00
 x-rbv=   8.8611E-03     y-rbv=   8.8613E-03     z-rbv=   0.0000E+00


 time =   8.9494E-04
 mat.#=    1             inten=   1.6794E-06     kinen=   5.1075E-12     eroded_ie=   0.0000E+00     eroded_ke=   0.0000E+00
 x-mom=   8.5670E-10     y-mom=   8.5628E-10     z-mom=   0.0000E+00
 x-rbv=   2.4803E-03     y-rbv=   2.4791E-03     z-rbv=   0.0000E+00


 time =   8.9974E-04
 mat.#=    1             inten=   1.6821E-06     kinen=   4.6678E-14     eroded_ie=   0.0000E+00     eroded_ke=   0.0000E+00
 x-mom=   4.9521E-11     y-mom=   4.9647E-11     z-mom=   0.0000E+00
 x-rbv=   1.4337E-04     y-rbv=   1.4374E-04     z-rbv=   0.0000E+00


 time =   9.0483E-04
 mat.#=    1             inten=   1.6845E-06     kinen=   5.3313E-12     eroded_ie=   0.0000E+00     eroded_ke=   0.0000E+00
 x-mom=   9.4618E-10     y-mom=   9.4593E-10     z-mom=   0.0000E+00
 x-rbv=   2.7394E-03     y-rbv=   2.7387E-03     z-rbv=   0.0000E+00


 time =   9.0991E-04
 mat.#=    1             inten=   1.6950E-06     kinen=   6.5278E-11     eroded_ie=   0.0000E+00     eroded_ke=   0.0000E+00
 x-mom=   2.9177E-09     y-mom=   2.9178E-09     z-mom=   0.0000E+00
 x-rbv=   8.4474E-03     y-rbv=   8.4475E-03     z-rbv=   0.0000E+00


 time =   9.1500E-04
 mat.#=    1             inten=   1.7180E-06     kinen=   2.1756E-10     eroded_ie=   0.0000E+00     eroded_ke=   0.0000E+00
 x-mom=   5.3859E-09     y-mom=   5.3858E-09     z-mom=   0.0000E+00
 x-rbv=   1.5593E-02     y-rbv=   1.5593E-02     z-rbv=   0.0000E+00


 time =   9.1980E-04
 mat.#=    1             inten=   1.7489E-06     kinen=   3.5597E-10     eroded_ie=   0.0000E+00     eroded_ke=   0.0000E+00
 x-mom=   6.8915E-09     y-mom=   6.8915E-09     z-mom=   0.0000E+00
 x-rbv=   1.9952E-02     y-rbv=   1.9952E-02     z-rbv=   0.0000E+00


 time =   9.2488E-04
 mat.#=    1             inten=   1.7865E-06     kinen=   3.5742E-10     eroded_ie=   0.0000E+00     eroded_ke=   0.0000E+00
 x-mom=   6.8017E-09     y-mom=   6.8014E-09     z-mom=   0.0000E+00
 x-rbv=   1.9692E-02     y-rbv=   1.9692E-02     z-rbv=   0.0000E+00


 time =   9.2997E-04
 mat.#=    1             inten=   1.8199E-06     kinen=   2.1124E-10     eroded_ie=   0.0000E+00     eroded_ke=   0.0000E+00
 x-mom=   5.3433E-09     y-mom=   5.3435E-09     z-mom=   0.0000E+00
 x-rbv=   1.5470E-02     y-rbv=   1.5470E-02     z-rbv=   0.0000E+00


 time =   9.3477E-04
 mat.#=    1             inten=   1.8409E-06     kinen=   6.7509E-11     eroded_ie=   0.0000E+00     eroded_ke=   0.0000E+00
 x-mom=   3.0169E-09     y-mom=   3.0168E-09     z-mom=   0.0000E+00
 x-rbv=   8.7345E-03     y-rbv=   8.7343E-03     z-rbv=   0.0000E+00


 time =   9.3985E-04
 mat.#=    1             inten=   1.8519E-06     kinen=   5.3457E-12     eroded_ie=   0.0000E+00     eroded_ke=   0.0000E+00
 x-mom=   8.5603E-10     y-mom=   8.5611E-10     z-mom=   0.0000E+00
 x-rbv=   2.4784E-03     y-rbv=   2.4786E-03     z-rbv=   0.0000E+00


 time =   9.4494E-04
 mat.#=    1             inten=   1.8544E-06     kinen=   3.9946E-13     eroded_ie=   0.0000E+00     eroded_ke=   0.0000E+00
 x-mom=   1.4442E-10     y-mom=   1.4474E-10     z-mom=   0.0000E+00
 x-rbv=   4.1812E-04     y-rbv=   4.1904E-04     z-rbv=   0.0000E+00


 time =   9.4974E-04
 mat.#=    1             inten=   1.8568E-06     kinen=   4.7056E-12     eroded_ie=   0.0000E+00     eroded_ke=   0.0000E+00
 x-mom=   8.1008E-10     y-mom=   8.0997E-10     z-mom=   0.0000E+00
 x-rbv=   2.3454E-03     y-rbv=   2.3450E-03     z-rbv=   0.0000E+00


 time =   9.5483E-04
 mat.#=    1             inten=   1.8682E-06     kinen=   6.3878E-11     eroded_ie=   0.0000E+00     eroded_ke=   0.0000E+00
 x-mom=   2.9311E-09     y-mom=   2.9315E-09     z-mom=   0.0000E+00
 x-rbv=   8.4862E-03     y-rbv=   8.4874E-03     z-rbv=   0.0000E+00


 time =   9.5991E-04
 mat.#=    1             inten=   1.8915E-06     kinen=   2.1529E-10     eroded_ie=   0.0000E+00     eroded_ke=   0.0000E+00
 x-mom=   5.4064E-09     y-mom=   5.4062E-09     z-mom=   0.0000E+00
 x-rbv=   1.5653E-02     y-rbv=   1.5652E-02     z-rbv=   0.0000E+00


 time =   9.6500E-04
 mat.#=    1             inten=   1.9263E-06     kinen=   3.5940E-10     eroded_ie=   0.0000E+00     eroded_ke=   0.0000E+00
 x-mom=   6.8222E-09     y-mom=   6.8224E-09     z-mom=   0.0000E+00
 x-rbv=   1.9751E-02     y-rbv=   1.9752E-02     z-rbv=   0.0000E+00


 time =   9.6980E-04
 mat.#=    1             inten=   1.9637E-06     kinen=   3.5887E-10     eroded_ie=   0.0000E+00     eroded_ke=   0.0000E+00
 x-mom=   6.9166E-09     y-mom=   6.9164E-09     z-mom=   0.0000E+00
 x-rbv=   2.0025E-02     y-rbv=   2.0024E-02     z-rbv=   0.0000E+00


 time =   9.7488E-04
 mat.#=    1             inten=   1.9982E-06     kinen=   2.1355E-10     eroded_ie=   0.0000E+00     eroded_ke=   0.0000E+00
 x-mom=   5.3579E-09     y-mom=   5.3582E-09     z-mom=   0.0000E+00
 x-rbv=   1.5512E-02     y-rbv=   1.5513E-02     z-rbv=   0.0000E+00


 time =   9.7997E-04
 mat.#=    1             inten=   2.0221E-06     kinen=   6.2817E-11     eroded_ie=   0.0000E+00     eroded_ke=   0.0000E+00
 x-mom=   2.8532E-09     y-mom=   2.8530E-09     z-mom=   0.0000E+00
 x-rbv=   8.2607E-03     y-rbv=   8.2599E-03     z-rbv=   0.0000E+00


 time =   9.8477E-04
 mat.#=    1             inten=   2.0325E-06     kinen=   6.0163E-12     eroded_ie=   0.0000E+00     eroded_ke=   0.0000E+00
 x-mom=   9.9533E-10     y-mom=   9.9562E-10     z-mom=   0.0000E+00
 x-rbv=   2.8817E-03     y-rbv=   2.8825E-03     z-rbv=   0.0000E+00


 time =   9.8986E-04
 mat.#=    1             inten=   2.0349E-06     kinen=   5.7186E-14     eroded_ie=   0.0000E+00     eroded_ke=   0.0000E+00
 x-mom=   5.1296E-11     y-mom=   5.1098E-11     z-mom=   0.0000E+00
 x-rbv=   1.4851E-04     y-rbv=   1.4794E-04     z-rbv=   0.0000E+00


 time =   9.9494E-04
 mat.#=    1             inten=   2.0384E-06     kinen=   5.5399E-12     eroded_ie=   0.0000E+00     eroded_ke=   0.0000E+00
 x-mom=   8.7971E-10     y-mom=   8.7948E-10     z-mom=   0.0000E+00
 x-rbv=   2.5469E-03     y-rbv=   2.5463E-03     z-rbv=   0.0000E+00


 time =   9.9974E-04
 mat.#=    1             inten=   2.0491E-06     kinen=   6.2671E-11     eroded_ie=   0.0000E+00     eroded_ke=   0.0000E+00
 x-mom=   2.9820E-09     y-mom=   2.9820E-09     z-mom=   0.0000E+00
 x-rbv=   8.6335E-03     y-rbv=   8.6336E-03     z-rbv=   0.0000E+00


 time =   1.0048E-03
 mat.#=    1             inten=   2.0736E-06     kinen=   2.1250E-10     eroded_ie=   0.0000E+00     eroded_ke=   0.0000E+00
 x-mom=   5.2572E-09     y-mom=   5.2568E-09     z-mom=   0.0000E+00
 x-rbv=   1.5221E-02     y-rbv=   1.5219E-02     z-rbv=   0.0000E+00


 time =   1.0099E-03
 mat.#=    1             inten=   2.1103E-06     kinen=   3.5832E-10     eroded_ie=   0.0000E+00     eroded_ke=   0.0000E+00
 x-mom=   6.8839E-09     y-mom=   6.8839E-09     z-mom=   0.0000E+00
 x-rbv=   1.9930E-02     y-rbv=   1.9930E-02     z-rbv=   0.0000E+00


 time =   1.0150E-03
 mat.#=    1             inten=   2.1510E-06     kinen=   3.5516E-10     eroded_ie=   0.0000E+00     eroded_ke=   0.0000E+00
 x-mom=   6.8939E-09     y-mom=   6.8937E-09     z-mom=   0.0000E+00
 x-rbv=   1.9959E-02     y-rbv=   1.9959E-02     z-rbv=   0.0000E+00


 time =   1.0198E-03
 mat.#=    1             inten=   2.1855E-06     kinen=   2.1586E-10     eroded_ie=   0.0000E+00     eroded_ke=   0.0000E+00
 x-mom=   5.2873E-09     y-mom=   5.2872E-09     z-mom=   0.0000E+00
 x-rbv=   1.5308E-02     y-rbv=   1.5308E-02     z-rbv=   0.0000E+00


 time =   1.0249E-03
 mat.#=    1             inten=   2.2106E-06     kinen=   6.4642E-11     eroded_ie=   0.0000E+00     eroded_ke=   0.0000E+00
 x-mom=   3.0016E-09     y-mom=   3.0015E-09     z-mom=   0.0000E+00
 x-rbv=   8.6903E-03     y-rbv=   8.6899E-03     z-rbv=   0.0000E+00


 time =   1.0300E-03
 mat.#=    1             inten=   2.2215E-06     kinen=   4.9420E-12     eroded_ie=   0.0000E+00     eroded_ke=   0.0000E+00
 x-mom=   8.7922E-10     y-mom=   8.7947E-10     z-mom=   0.0000E+00
 x-rbv=   2.5455E-03     y-rbv=   2.5462E-03     z-rbv=   0.0000E+00


 time =   1.0348E-03
 mat.#=    1             inten=   2.2245E-06     kinen=   9.4408E-15     eroded_ie=   0.0000E+00     eroded_ke=   0.0000E+00
 x-mom=   2.4087E-11     y-mom=   2.3861E-11     z-mom=   0.0000E+00
 x-rbv=   6.9737E-05     y-rbv=   6.9083E-05     z-rbv=   0.0000E+00


 time =   1.0399E-03
 mat.#=    1             inten=   2.2275E-06     kinen=   5.6205E-12     eroded_ie=   0.0000E+00     eroded_ke=   0.0000E+00
 x-mom=   9.6404E-10     y-mom=   9.6439E-10     z-mom=   0.0000E+00
 x-rbv=   2.7911E-03     y-rbv=   2.7921E-03     z-rbv=   0.0000E+00


 time =   1.0449E-03
 mat.#=    1             inten=   2.2395E-06     kinen=   6.6889E-11     eroded_ie=   0.0000E+00     eroded_ke=   0.0000E+00
 x-mom=   2.9826E-09     y-mom=   2.9828E-09     z-mom=   0.0000E+00
 x-rbv=   8.6351E-03     y-rbv=   8.6359E-03     z-rbv=   0.0000E+00


 time =   1.0497E-03
 mat.#=    1             inten=   2.2644E-06     kinen=   2.1007E-10     eroded_ie=   0.0000E+00     eroded_ke=   0.0000E+00
 x-mom=   5.2645E-09     y-mom=   5.2645E-09     z-mom=   0.0000E+00
 x-rbv=   1.5242E-02     y-rbv=   1.5242E-02     z-rbv=   0.0000E+00


 time =   1.0548E-03
 mat.#=    1             inten=   2.3020E-06     kinen=   3.5738E-10     eroded_ie=   0.0000E+00     eroded_ke=   0.0000E+00
 x-mom=   6.9332E-09     y-mom=   6.9337E-09     z-mom=   0.0000E+00
 x-rbv=   2.0073E-02     y-rbv=   2.0074E-02     z-rbv=   0.0000E+00


 time =   1.0599E-03
 mat.#=    1             inten=   2.3448E-06     kinen=   3.5614E-10     eroded_ie=   0.0000E+00     eroded_ke=   0.0000E+00
 x-mom=   6.7911E-09     y-mom=   6.7910E-09     z-mom=   0.0000E+00
 x-rbv=   1.9661E-02     y-rbv=   1.9661E-02     z-rbv=   0.0000E+00


 time =   1.0650E-03
 mat.#=    1             inten=   2.3831E-06     kinen=   2.0866E-10     eroded_ie=   0.0000E+00     eroded_ke=   0.0000E+00
 x-mom=   5.2857E-09     y-mom=   5.2859E-09     z-mom=   0.0000E+00
 x-rbv=   1.5303E-02     y-rbv=   1.5304E-02     z-rbv=   0.0000E+00


 time =   1.0698E-03
 mat.#=    1             inten=   2.4069E-06     kinen=   6.6089E-11     eroded_ie=   0.0000E+00     eroded_ke=   0.0000E+00
 x-mom=   3.0242E-09     y-mom=   3.0242E-09     z-mom=   0.0000E+00
 x-rbv=   8.7558E-03     y-rbv=   8.7558E-03     z-rbv=   0.0000E+00


 time =   1.0749E-03
 mat.#=    1             inten=   2.4192E-06     kinen=   5.0689E-12     eroded_ie=   0.0000E+00     eroded_ke=   0.0000E+00
 x-mom=   8.1216E-10     y-mom=   8.1227E-10     z-mom=   0.0000E+00
 x-rbv=   2.3514E-03     y-rbv=   2.3517E-03     z-rbv=   0.0000E+00


 time =   1.0800E-03
 mat.#=    1             inten=   2.4222E-06     kinen=   3.1329E-13     eroded_ie=   0.0000E+00     eroded_ke=   0.0000E+00
 x-mom=   1.3443E-10     y-mom=   1.3404E-10     z-mom=   0.0000E+00
 x-rbv=   3.8921E-04     y-rbv=   3.8808E-04     z-rbv=   0.0000E+00


 time =   1.0848E-03
 mat.#=    1             inten=   2.4249E-06     kinen=   5.0109E-12     eroded_ie=   0.0000E+00     eroded_ke=   0.0000E+00
 x-mom=   8.5267E-10     y-mom=   8.5294E-10     z-mom=   0.0000E+00
 x-rbv=   2.4687E-03     y-rbv=   2.4694E-03     z-rbv=   0.0000E+00


 time =   1.0899E-03
 mat.#=    1             inten=   2.4380E-06     kinen=   6.5300E-11     eroded_ie=   0.0000E+00     eroded_ke=   0.0000E+00
 x-mom=   2.9401E-09     y-mom=   2.9395E-09     z-mom=   0.0000E+00
 x-rbv=   8.5120E-03     y-rbv=   8.5104E-03     z-rbv=   0.0000E+00


 time =   1.0949E-03
 mat.#=    1             inten=   2.4650E-06     kinen=   2.1771E-10     eroded_ie=   0.0000E+00     eroded_ke=   0.0000E+00
 x-mom=   5.4433E-09     y-mom=   5.4433E-09     z-mom=   0.0000E+00
 x-rbv=   1.5760E-02     y-rbv=   1.5759E-02     z-rbv=   0.0000E+00


 time =   1.0997E-03
 mat.#=    1             inten=   2.5023E-06     kinen=   3.5564E-10     eroded_ie=   0.0000E+00     eroded_ke=   0.0000E+00
 x-mom=   6.8029E-09     y-mom=   6.8027E-09     z-mom=   0.0000E+00
 x-rbv=   1.9696E-02     y-rbv=   1.9695E-02     z-rbv=   0.0000E+00


 time =   1.1048E-03
 mat.#=    1             inten=   2.5474E-06     kinen=   3.5749E-10     eroded_ie=   0.0000E+00     eroded_ke=   0.0000E+00
 x-mom=   6.8690E-09     y-mom=   6.8686E-09     z-mom=   0.0000E+00
 x-rbv=   1.9887E-02     y-rbv=   1.9886E-02     z-rbv=   0.0000E+00


 time =   1.1099E-03
 mat.#=    1             inten=   2.5866E-06     kinen=   2.1127E-10     eroded_ie=   0.0000E+00     eroded_ke=   0.0000E+00
 x-mom=   5.3471E-09     y-mom=   5.3471E-09     z-mom=   0.0000E+00
 x-rbv=   1.5481E-02     y-rbv=   1.5481E-02     z-rbv=   0.0000E+00


 time =   1.1147E-03
 mat.#=    1             inten=   2.6123E-06     kinen=   6.7480E-11     eroded_ie=   0.0000E+00     eroded_ke=   0.0000E+00
 x-mom=   2.9573E-09     y-mom=   2.9570E-09     z-mom=   0.0000E+00
 x-rbv=   8.5620E-03     y-rbv=   8.5611E-03     z-rbv=   0.0000E+00


 time =   1.1198E-03
 mat.#=    1             inten=   2.6252E-06     kinen=   5.6071E-12     eroded_ie=   0.0000E+00     eroded_ke=   0.0000E+00
 x-mom=   9.4682E-10     y-mom=   9.4679E-10     z-mom=   0.0000E+00
 x-rbv=   2.7412E-03     y-rbv=   2.7411E-03     z-rbv=   0.0000E+00


 time =   1.1249E-03
 mat.#=    1             inten=   2.6278E-06     kinen=   1.6223E-13     eroded_ie=   0.0000E+00     eroded_ke=   0.0000E+00
 x-mom=   1.0155E-10     y-mom=   1.0124E-10     z-mom=   0.0000E+00
 x-rbv=   2.9402E-04     y-rbv=   2.9311E-04     z-rbv=   0.0000E+00


 time =   1.1300E-03
 mat.#=    1             inten=   2.6317E-06     kinen=   5.8188E-12     eroded_ie=   0.0000E+00     eroded_ke=   0.0000E+00
 x-mom=   8.7516E-10     y-mom=   8.7550E-10     z-mom=   0.0000E+00
 x-rbv=   2.5338E-03     y-rbv=   2.5347E-03     z-rbv=   0.0000E+00


 time =   1.1348E-03
 mat.#=    1             inten=   2.6443E-06     kinen=   6.4153E-11     eroded_ie=   0.0000E+00     eroded_ke=   0.0000E+00
 x-mom=   3.0142E-09     y-mom=   3.0136E-09     z-mom=   0.0000E+00
 x-rbv=   8.7266E-03     y-rbv=   8.7251E-03     z-rbv=   0.0000E+00


 time =   1.1399E-03
 mat.#=    1             inten=   2.6720E-06     kinen=   2.1487E-10     eroded_ie=   0.0000E+00     eroded_ke=   0.0000E+00
 x-mom=   5.3111E-09     y-mom=   5.3119E-09     z-mom=   0.0000E+00
 x-rbv=   1.5377E-02     y-rbv=   1.5379E-02     z-rbv=   0.0000E+00


 time =   1.1449E-03
 mat.#=    1             inten=   2.7139E-06     kinen=   3.5941E-10     eroded_ie=   0.0000E+00     eroded_ke=   0.0000E+00
 x-mom=   6.8554E-09     y-mom=   6.8550E-09     z-mom=   0.0000E+00
 x-rbv=   1.9848E-02     y-rbv=   1.9847E-02     z-rbv=   0.0000E+00


 time =   1.1497E-03
 mat.#=    1             inten=   2.7576E-06     kinen=   3.5905E-10     eroded_ie=   0.0000E+00     eroded_ke=   0.0000E+00
 x-mom=   6.9499E-09     y-mom=   6.9504E-09     z-mom=   0.0000E+00
 x-rbv=   2.0121E-02     y-rbv=   2.0123E-02     z-rbv=   0.0000E+00


 time =   1.1548E-03
 mat.#=    1             inten=   2.7989E-06     kinen=   2.1335E-10     eroded_ie=   0.0000E+00     eroded_ke=   0.0000E+00
 x-mom=   5.2621E-09     y-mom=   5.2622E-09     z-mom=   0.0000E+00
 x-rbv=   1.5235E-02     y-rbv=   1.5235E-02     z-rbv=   0.0000E+00


 time =   1.1599E-03
 mat.#=    1             inten=   2.8272E-06     kinen=   6.3016E-11     eroded_ie=   0.0000E+00     eroded_ke=   0.0000E+00
 x-mom=   2.9426E-09     y-mom=   2.9427E-09     z-mom=   0.0000E+00
 x-rbv=   8.5193E-03     y-rbv=   8.5197E-03     z-rbv=   0.0000E+00


 time =   1.1647E-03
 mat.#=    1             inten=   2.8389E-06     kinen=   5.8648E-12     eroded_ie=   0.0000E+00     eroded_ke=   0.0000E+00
 x-mom=   9.5774E-10     y-mom=   9.5808E-10     z-mom=   0.0000E+00
 x-rbv=   2.7729E-03     y-rbv=   2.7738E-03     z-rbv=   0.0000E+00


 time =   1.1698E-03
 mat.#=    1             inten=   2.8425E-06     kinen=   3.6924E-15     eroded_ie=   0.0000E+00     eroded_ke=   0.0000E+00
 x-mom=   8.9494E-12     y-mom=   8.9605E-12     z-mom=   0.0000E+00
 x-rbv=   2.5910E-05     y-rbv=   2.5942E-05     z-rbv=   0.0000E+00


 time =   1.1749E-03
 mat.#=    1             inten=   2.8463E-06     kinen=   5.8178E-12     eroded_ie=   0.0000E+00     eroded_ke=   0.0000E+00
 x-mom=   9.7006E-10     y-mom=   9.7054E-10     z-mom=   0.0000E+00
 x-rbv=   2.8085E-03     y-rbv=   2.8099E-03     z-rbv=   0.0000E+00


 time =   1.1800E-03
 mat.#=    1             inten=   2.8599E-06     kinen=   6.8456E-11     eroded_ie=   0.0000E+00     eroded_ke=   0.0000E+00
 x-mom=   3.0499E-09     y-mom=   3.0497E-09     z-mom=   0.0000E+00
 x-rbv=   8.8302E-03     y-rbv=   8.8296E-03     z-rbv=   0.0000E+00


 time =   1.1848E-03
 mat.#=    1             inten=   2.8882E-06     kinen=   2.1244E-10     eroded_ie=   0.0000E+00     eroded_ke=   0.0000E+00
 x-mom=   5.2705E-09     y-mom=   5.2712E-09     z-mom=   0.0000E+00
 x-rbv=   1.5259E-02     y-rbv=   1.5261E-02     z-rbv=   0.0000E+00


 time =   1.1899E-03
 mat.#=    1             inten=   2.9309E-06     kinen=   3.5851E-10     eroded_ie=   0.0000E+00     eroded_ke=   0.0000E+00
 x-mom=   6.9455E-09     y-mom=   6.9450E-09     z-mom=   0.0000E+00
 x-rbv=   2.0109E-02     y-rbv=   2.0107E-02     z-rbv=   0.0000E+00


 time =   1.1949E-03
 mat.#=    1             inten=   2.9789E-06     kinen=   3.5492E-10     eroded_ie=   0.0000E+00     eroded_ke=   0.0000E+00
 x-mom=   6.8101E-09     y-mom=   6.8108E-09     z-mom=   0.0000E+00
 x-rbv=   1.9717E-02     y-rbv=   1.9719E-02     z-rbv=   0.0000E+00


 time =   1.1997E-03
 mat.#=    1             inten=   3.0200E-06     kinen=   2.1595E-10     eroded_ie=   0.0000E+00     eroded_ke=   0.0000E+00
 x-mom=   5.3477E-09     y-mom=   5.3471E-09     z-mom=   0.0000E+00
 x-rbv=   1.5483E-02     y-rbv=   1.5481E-02     z-rbv=   0.0000E+00


 time =   1.2048E-03
 mat.#=    1             inten=   3.0488E-06     kinen=   6.4754E-11     eroded_ie=   0.0000E+00     eroded_ke=   0.0000E+00
 x-mom=   3.0162E-09     y-mom=   3.0163E-09     z-mom=   0.0000E+00
 x-rbv=   8.7324E-03     y-rbv=   8.7327E-03     z-rbv=   0.0000E+00


 time =   1.2099E-03
 mat.#=    1             inten=   3.0621E-06     kinen=   4.7993E-12     eroded_ie=   0.0000E+00     eroded_ke=   0.0000E+00
 x-mom=   7.9362E-10     y-mom=   7.9340E-10     z-mom=   0.0000E+00
 x-rbv=   2.2977E-03     y-rbv=   2.2970E-03     z-rbv=   0.0000E+00


 time =   1.2147E-03
 mat.#=    1             inten=   3.0656E-06     kinen=   2.4860E-13     eroded_ie=   0.0000E+00     eroded_ke=   0.0000E+00
 x-mom=   1.1763E-10     y-mom=   1.1734E-10     z-mom=   0.0000E+00
 x-rbv=   3.4057E-04     y-rbv=   3.3973E-04     z-rbv=   0.0000E+00


 time =   1.2198E-03
 mat.#=    1             inten=   3.0687E-06     kinen=   5.4023E-12     eroded_ie=   0.0000E+00     eroded_ke=   0.0000E+00
 x-mom=   9.2234E-10     y-mom=   9.2227E-10     z-mom=   0.0000E+00
 x-rbv=   2.6704E-03     y-rbv=   2.6701E-03     z-rbv=   0.0000E+00


 time =   1.2249E-03
 mat.#=    1             inten=   3.0835E-06     kinen=   6.6792E-11     eroded_ie=   0.0000E+00     eroded_ke=   0.0000E+00
 x-mom=   2.9442E-09     y-mom=   2.9435E-09     z-mom=   0.0000E+00
 x-rbv=   8.5242E-03     y-rbv=   8.5221E-03     z-rbv=   0.0000E+00


 time =   1.2300E-03
 mat.#=    1             inten=   3.1144E-06     kinen=   2.2005E-10     eroded_ie=   0.0000E+00     eroded_ke=   0.0000E+00
 x-mom=   5.4653E-09     y-mom=   5.4657E-09     z-mom=   0.0000E+00
 x-rbv=   1.5823E-02     y-rbv=   1.5824E-02     z-rbv=   0.0000E+00


 time =   1.2348E-03
 mat.#=    1             inten=   3.1561E-06     kinen=   3.5696E-10     eroded_ie=   0.0000E+00     eroded_ke=   0.0000E+00
 x-mom=   6.8344E-09     y-mom=   6.8336E-09     z-mom=   0.0000E+00
 x-rbv=   1.9787E-02     y-rbv=   1.9785E-02     z-rbv=   0.0000E+00


 time =   1.2399E-03
 mat.#=    1             inten=   3.2068E-06     kinen=   3.5621E-10     eroded_ie=   0.0000E+00     eroded_ke=   0.0000E+00
 x-mom=   6.8253E-09     y-mom=   6.8259E-09     z-mom=   0.0000E+00
 x-rbv=   1.9761E-02     y-rbv=   1.9762E-02     z-rbv=   0.0000E+00


 time =   1.2449E-03
 mat.#=    1             inten=   3.2509E-06     kinen=   2.0893E-10     eroded_ie=   0.0000E+00     eroded_ke=   0.0000E+00
 x-mom=   5.3378E-09     y-mom=   5.3371E-09     z-mom=   0.0000E+00
 x-rbv=   1.5454E-02     y-rbv=   1.5452E-02     z-rbv=   0.0000E+00


 time =   1.2497E-03
 mat.#=    1             inten=   3.2791E-06     kinen=   6.5905E-11     eroded_ie=   0.0000E+00     eroded_ke=   0.0000E+00
 x-mom=   2.9328E-09     y-mom=   2.9336E-09     z-mom=   0.0000E+00
 x-rbv=   8.4910E-03     y-rbv=   8.4932E-03     z-rbv=   0.0000E+00


 time =   1.2548E-03
 mat.#=    1             inten=   3.2935E-06     kinen=   5.2141E-12     eroded_ie=   0.0000E+00     eroded_ke=   0.0000E+00
 x-mom=   8.9639E-10     y-mom=   8.9599E-10     z-mom=   0.0000E+00
 x-rbv=   2.5952E-03     y-rbv=   2.5941E-03     z-rbv=   0.0000E+00


 time =   1.2599E-03
 mat.#=    1             inten=   3.2965E-06     kinen=   2.8346E-13     eroded_ie=   0.0000E+00     eroded_ke=   0.0000E+00
 x-mom=   1.1935E-10     y-mom=   1.1963E-10     z-mom=   0.0000E+00
 x-rbv=   3.4555E-04     y-rbv=   3.4636E-04     z-rbv=   0.0000E+00


 time =   1.2647E-03
 mat.#=    1             inten=   3.3002E-06     kinen=   4.9534E-12     eroded_ie=   0.0000E+00     eroded_ke=   0.0000E+00
 x-mom=   8.0825E-10     y-mom=   8.0841E-10     z-mom=   0.0000E+00
 x-rbv=   2.3400E-03     y-rbv=   2.3405E-03     z-rbv=   0.0000E+00


 time =   1.2698E-03
 mat.#=    1             inten=   3.3152E-06     kinen=   6.5538E-11     eroded_ie=   0.0000E+00     eroded_ke=   0.0000E+00
 x-mom=   3.0261E-09     y-mom=   3.0261E-09     z-mom=   0.0000E+00
 x-rbv=   8.7610E-03     y-rbv=   8.7611E-03     z-rbv=   0.0000E+00


 time =   1.2749E-03
 mat.#=    1             inten=   3.3464E-06     kinen=   2.1739E-10     eroded_ie=   0.0000E+00     eroded_ke=   0.0000E+00
 x-mom=   5.3834E-09     y-mom=   5.3839E-09     z-mom=   0.0000E+00
 x-rbv=   1.5586E-02     y-rbv=   1.5588E-02     z-rbv=   0.0000E+00


 time =   1.2800E-03
 mat.#=    1             inten=   3.3933E-06     kinen=   3.6047E-10     eroded_ie=   0.0000E+00     eroded_ke=   0.0000E+00
 x-mom=   6.8407E-09     y-mom=   6.8404E-09     z-mom=   0.0000E+00
 x-rbv=   1.9805E-02     y-rbv=   1.9804E-02     z-rbv=   0.0000E+00


 time =   1.2848E-03
 mat.#=    1             inten=   3.4423E-06     kinen=   3.5775E-10     eroded_ie=   0.0000E+00     eroded_ke=   0.0000E+00
 x-mom=   6.9382E-09     y-mom=   6.9386E-09     z-mom=   0.0000E+00
 x-rbv=   2.0087E-02     y-rbv=   2.0089E-02     z-rbv=   0.0000E+00


 time =   1.2899E-03
 mat.#=    1             inten=   3.4881E-06     kinen=   2.1104E-10     eroded_ie=   0.0000E+00     eroded_ke=   0.0000E+00
 x-mom=   5.2608E-09     y-mom=   5.2603E-09     z-mom=   0.0000E+00
 x-rbv=   1.5231E-02     y-rbv=   1.5230E-02     z-rbv=   0.0000E+00


 time =   1.2949E-03
 mat.#=    1             inten=   3.5195E-06     kinen=   6.1480E-11     eroded_ie=   0.0000E+00     eroded_ke=   0.0000E+00
 x-mom=   2.8639E-09     y-mom=   2.8643E-09     z-mom=   0.0000E+00
 x-rbv=   8.2914E-03     y-rbv=   8.2928E-03     z-rbv=   0.0000E+00


 time =   1.2998E-03
 mat.#=    1             inten=   3.5326E-06     kinen=   5.6947E-12     eroded_ie=   0.0000E+00     eroded_ke=   0.0000E+00
 x-mom=   9.7019E-10     y-mom=   9.6953E-10     z-mom=   0.0000E+00
 x-rbv=   2.8089E-03     y-rbv=   2.8070E-03     z-rbv=   0.0000E+00


 time =   1.3048E-03
 mat.#=    1             inten=   3.5362E-06     kinen=   2.4765E-15     eroded_ie=   0.0000E+00     eroded_ke=   0.0000E+00
 x-mom=   7.8741E-12     y-mom=   8.3450E-12     z-mom=   0.0000E+00
 x-rbv=   2.2797E-05     y-rbv=   2.4161E-05     z-rbv=   0.0000E+00


 time =   1.3099E-03
 mat.#=    1             inten=   3.5407E-06     kinen=   5.9977E-12     eroded_ie=   0.0000E+00     eroded_ke=   0.0000E+00
 x-mom=   9.6818E-10     y-mom=   9.6778E-10     z-mom=   0.0000E+00
 x-rbv=   2.8031E-03     y-rbv=   2.8019E-03     z-rbv=   0.0000E+00


 time =   1.3147E-03
 mat.#=    1             inten=   3.5547E-06     kinen=   6.3910E-11     eroded_ie=   0.0000E+00     eroded_ke=   0.0000E+00
 x-mom=   2.9685E-09     y-mom=   2.9685E-09     z-mom=   0.0000E+00
 x-rbv=   8.5944E-03     y-rbv=   8.5944E-03     z-rbv=   0.0000E+00


 time =   1.3198E-03
 mat.#=    1             inten=   3.5876E-06     kinen=   2.1480E-10     eroded_ie=   0.0000E+00     eroded_ke=   0.0000E+00
 x-mom=   5.2751E-09     y-mom=   5.2752E-09     z-mom=   0.0000E+00
 x-rbv=   1.5272E-02     y-rbv=   1.5273E-02     z-rbv=   0.0000E+00


 time =   1.3249E-03
 mat.#=    1             inten=   3.6357E-06     kinen=   3.5971E-10     eroded_ie=   0.0000E+00     eroded_ke=   0.0000E+00
 x-mom=   6.9491E-09     y-mom=   6.9488E-09     z-mom=   0.0000E+00
 x-rbv=   2.0119E-02     y-rbv=   2.0118E-02     z-rbv=   0.0000E+00


 time =   1.3300E-03
 mat.#=    1             inten=   3.6890E-06     kinen=   3.5365E-10     eroded_ie=   0.0000E+00     eroded_ke=   0.0000E+00
 x-mom=   6.8218E-09     y-mom=   6.8220E-09     z-mom=   0.0000E+00
 x-rbv=   1.9751E-02     y-rbv=   1.9751E-02     z-rbv=   0.0000E+00


 time =   1.3348E-03
 mat.#=    1             inten=   3.7344E-06     kinen=   2.1344E-10     eroded_ie=   0.0000E+00     eroded_ke=   0.0000E+00
 x-mom=   5.2943E-09     y-mom=   5.2939E-09     z-mom=   0.0000E+00
 x-rbv=   1.5328E-02     y-rbv=   1.5327E-02     z-rbv=   0.0000E+00


 time =   1.3399E-03
 mat.#=    1             inten=   3.7664E-06     kinen=   6.3251E-11     eroded_ie=   0.0000E+00     eroded_ke=   0.0000E+00
 x-mom=   2.9930E-09     y-mom=   2.9932E-09     z-mom=   0.0000E+00
 x-rbv=   8.6653E-03     y-rbv=   8.6658E-03     z-rbv=   0.0000E+00


 time =   1.3449E-03
 mat.#=    1             inten=   3.7807E-06     kinen=   4.5590E-12     eroded_ie=   0.0000E+00     eroded_ke=   0.0000E+00
 x-mom=   7.9616E-10     y-mom=   7.9558E-10     z-mom=   0.0000E+00
 x-rbv=   2.3051E-03     y-rbv=   2.3034E-03     z-rbv=   0.0000E+00


 time =   1.3498E-03
 mat.#=    1             inten=   3.7847E-06     kinen=   1.2229E-13     eroded_ie=   0.0000E+00     eroded_ke=   0.0000E+00
 x-mom=   8.1055E-11     y-mom=   8.1653E-11     z-mom=   0.0000E+00
 x-rbv=   2.3467E-04     y-rbv=   2.3640E-04     z-rbv=   0.0000E+00


 time =   1.3548E-03
 mat.#=    1             inten=   3.7883E-06     kinen=   5.8034E-12     eroded_ie=   0.0000E+00     eroded_ke=   0.0000E+00
 x-mom=   9.6554E-10     y-mom=   9.6498E-10     z-mom=   0.0000E+00
 x-rbv=   2.7954E-03     y-rbv=   2.7938E-03     z-rbv=   0.0000E+00


 time =   1.3599E-03
 mat.#=    1             inten=   3.8047E-06     kinen=   6.8342E-11     eroded_ie=   0.0000E+00     eroded_ke=   0.0000E+00
 x-mom=   2.9800E-09     y-mom=   2.9804E-09     z-mom=   0.0000E+00
 x-rbv=   8.6277E-03     y-rbv=   8.6290E-03     z-rbv=   0.0000E+00


 time =   1.3647E-03
 mat.#=    1             inten=   3.8371E-06     kinen=   2.1265E-10     eroded_ie=   0.0000E+00     eroded_ke=   0.0000E+00
 x-mom=   5.3585E-09     y-mom=   5.3585E-09     z-mom=   0.0000E+00
 x-rbv=   1.5514E-02     y-rbv=   1.5514E-02     z-rbv=   0.0000E+00


 time =   1.3698E-03
 mat.#=    1             inten=   3.8859E-06     kinen=   3.5825E-10     eroded_ie=   0.0000E+00     eroded_ke=   0.0000E+00
 x-mom=   6.8939E-09     y-mom=   6.8940E-09     z-mom=   0.0000E+00
 x-rbv=   1.9959E-02     y-rbv=   1.9959E-02     z-rbv=   0.0000E+00


 time =   1.3749E-03
 mat.#=    1             inten=   3.9419E-06     kinen=   3.5482E-10     eroded_ie=   0.0000E+00     eroded_ke=   0.0000E+00
 x-mom=   6.7829E-09     y-mom=   6.7832E-09     z-mom=   0.0000E+00
 x-rbv=   1.9638E-02     y-rbv=   1.9639E-02     z-rbv=   0.0000E+00


 time =   1.3800E-03
 mat.#=    1             inten=   3.9909E-06     kinen=   2.0652E-10     eroded_ie=   0.0000E+00     eroded_ke=   0.0000E+00
 x-mom=   5.3002E-09     y-mom=   5.3003E-09     z-mom=   0.0000E+00
 x-rbv=   1.5345E-02     y-rbv=   1.5345E-02     z-rbv=   0.0000E+00


 time =   1.3848E-03
 mat.#=    1             inten=   4.0217E-06     kinen=   6.4466E-11     eroded_ie=   0.0000E+00     eroded_ke=   0.0000E+00
 x-mom=   2.9224E-09     y-mom=   2.9224E-09     z-mom=   0.0000E+00
 x-rbv=   8.4609E-03     y-rbv=   8.4610E-03     z-rbv=   0.0000E+00


 time =   1.3899E-03
 mat.#=    1             inten=   4.0375E-06     kinen=   4.8495E-12     eroded_ie=   0.0000E+00     eroded_ke=   0.0000E+00
[...]
 mat.#=    1             inten=   1.2729E-05     kinen=   7.9871E-12     eroded_ie=   0.0000E+00     eroded_ke=   0.0000E+00
 x-mom=   1.0944E-09     y-mom=   1.0955E-09     z-mom=   0.0000E+00
 x-rbv=   3.1685E-03     y-rbv=   3.1717E-03     z-rbv=   0.0000E+00


 time =   2.4848E-03
 mat.#=    1             inten=   1.2758E-05     kinen=   7.3241E-11     eroded_ie=   0.0000E+00     eroded_ke=   0.0000E+00
 x-mom=   3.1723E-09     y-mom=   3.1735E-09     z-mom=   0.0000E+00
 x-rbv=   9.1844E-03     y-rbv=   9.1878E-03     z-rbv=   0.0000E+00


 time =   2.4899E-03
 mat.#=    1             inten=   1.2823E-05     kinen=   2.2911E-10     eroded_ie=   0.0000E+00     eroded_ke=   0.0000E+00
 x-mom=   5.4559E-09     y-mom=   5.4572E-09     z-mom=   0.0000E+00
 x-rbv=   1.5796E-02     y-rbv=   1.5800E-02     z-rbv=   0.0000E+00


 time =   2.4950E-03
 mat.#=    1             inten=   1.2915E-05     kinen=   3.6590E-10     eroded_ie=   0.0000E+00     eroded_ke=   0.0000E+00
 x-mom=   6.9977E-09     y-mom=   6.9986E-09     z-mom=   0.0000E+00
 x-rbv=   2.0260E-02     y-rbv=   2.0262E-02     z-rbv=   0.0000E+00


 time =   2.4998E-03
 mat.#=    1             inten=   1.3010E-05     kinen=   3.5098E-10     eroded_ie=   0.0000E+00     eroded_ke=   0.0000E+00
 x-mom=   6.7968E-09     y-mom=   6.7979E-09     z-mom=   0.0000E+00
 x-rbv=   1.9678E-02     y-rbv=   1.9681E-02     z-rbv=   0.0000E+00


 time =   2.5049E-03
 mat.#=    1             inten=   1.3099E-05     kinen=   1.9908E-10     eroded_ie=   0.0000E+00     eroded_ke=   0.0000E+00
 x-mom=   5.0999E-09     y-mom=   5.0996E-09     z-mom=   0.0000E+00
 x-rbv=   1.4765E-02     y-rbv=   1.4764E-02     z-rbv=   0.0000E+00


 time =   2.5099E-03
 mat.#=    1             inten=   1.3156E-05     kinen=   5.4781E-11     eroded_ie=   0.0000E+00     eroded_ke=   0.0000E+00
 x-mom=   2.7886E-09     y-mom=   2.7896E-09     z-mom=   0.0000E+00
 x-rbv=   8.0734E-03     y-rbv=   8.0765E-03     z-rbv=   0.0000E+00


 time =   2.5147E-03
 mat.#=    1             inten=   1.3180E-05     kinen=   4.0924E-12     eroded_ie=   0.0000E+00     eroded_ke=   0.0000E+00
 x-mom=   7.5467E-10     y-mom=   7.5385E-10     z-mom=   0.0000E+00
 x-rbv=   2.1849E-03     y-rbv=   2.1825E-03     z-rbv=   0.0000E+00


 time =   2.5198E-03
 mat.#=    1             inten=   1.3187E-05     kinen=   9.4809E-14     eroded_ie=   0.0000E+00     eroded_ke=   0.0000E+00
 x-mom=   7.7509E-11     y-mom=   7.7789E-11     z-mom=   0.0000E+00
 x-rbv=   2.2440E-04     y-rbv=   2.2522E-04     z-rbv=   0.0000E+00


 time =   2.5249E-03
 mat.#=    1             inten=   1.3195E-05     kinen=   7.7869E-12     eroded_ie=   0.0000E+00     eroded_ke=   0.0000E+00
 x-mom=   1.1178E-09     y-mom=   1.1166E-09     z-mom=   0.0000E+00
 x-rbv=   3.2361E-03     y-rbv=   3.2329E-03     z-rbv=   0.0000E+00


 time =   2.5300E-03
 mat.#=    1             inten=   1.3228E-05     kinen=   7.7987E-11     eroded_ie=   0.0000E+00     eroded_ke=   0.0000E+00
 x-mom=   3.1806E-09     y-mom=   3.1804E-09     z-mom=   0.0000E+00
 x-rbv=   9.2086E-03     y-rbv=   9.2078E-03     z-rbv=   0.0000E+00


 time =   2.5348E-03
 mat.#=    1             inten=   1.3291E-05     kinen=   2.2695E-10     eroded_ie=   0.0000E+00     eroded_ke=   0.0000E+00
 x-mom=   5.5259E-09     y-mom=   5.5246E-09     z-mom=   0.0000E+00
 x-rbv=   1.5999E-02     y-rbv=   1.5995E-02     z-rbv=   0.0000E+00


 time =   2.5399E-03
 mat.#=    1             inten=   1.3383E-05     kinen=   3.6485E-10     eroded_ie=   0.0000E+00     eroded_ke=   0.0000E+00
 x-mom=   6.9573E-09     y-mom=   6.9567E-09     z-mom=   0.0000E+00
 x-rbv=   2.0143E-02     y-rbv=   2.0141E-02     z-rbv=   0.0000E+00


 time =   2.5450E-03
 mat.#=    1             inten=   1.3487E-05     kinen=   3.4653E-10     eroded_ie=   0.0000E+00     eroded_ke=   0.0000E+00
 x-mom=   6.7042E-09     y-mom=   6.7023E-09     z-mom=   0.0000E+00
 x-rbv=   1.9410E-02     y-rbv=   1.9404E-02     z-rbv=   0.0000E+00


 time =   2.5498E-03
 mat.#=    1             inten=   1.3571E-05     kinen=   2.0186E-10     eroded_ie=   0.0000E+00     eroded_ke=   0.0000E+00
 x-mom=   5.2467E-09     y-mom=   5.2459E-09     z-mom=   0.0000E+00
 x-rbv=   1.5190E-02     y-rbv=   1.5188E-02     z-rbv=   0.0000E+00


 time =   2.5549E-03
 mat.#=    1             inten=   1.3629E-05     kinen=   5.5851E-11     eroded_ie=   0.0000E+00     eroded_ke=   0.0000E+00
 x-mom=   2.7319E-09     y-mom=   2.7312E-09     z-mom=   0.0000E+00
 x-rbv=   7.9093E-03     y-rbv=   7.9072E-03     z-rbv=   0.0000E+00


 time =   2.5599E-03
 mat.#=    1             inten=   1.3656E-05     kinen=   3.4490E-12     eroded_ie=   0.0000E+00     eroded_ke=   0.0000E+00
 x-mom=   7.1087E-10     y-mom=   7.0934E-10     z-mom=   0.0000E+00
 x-rbv=   2.0581E-03     y-rbv=   2.0537E-03     z-rbv=   0.0000E+00


 time =   2.5648E-03
 mat.#=    1             inten=   1.3661E-05     kinen=   3.4715E-13     eroded_ie=   0.0000E+00     eroded_ke=   0.0000E+00
 x-mom=   1.3962E-10     y-mom=   1.4035E-10     z-mom=   0.0000E+00
 x-rbv=   4.0423E-04     y-rbv=   4.0634E-04     z-rbv=   0.0000E+00


 time =   2.5698E-03
 mat.#=    1             inten=   1.3670E-05     kinen=   7.1245E-12     eroded_ie=   0.0000E+00     eroded_ke=   0.0000E+00
 x-mom=   9.7595E-10     y-mom=   9.7473E-10     z-mom=   0.0000E+00
 x-rbv=   2.8256E-03     y-rbv=   2.8220E-03     z-rbv=   0.0000E+00


 time =   2.5749E-03
 mat.#=    1             inten=   1.3704E-05     kinen=   7.6471E-11     eroded_ie=   0.0000E+00     eroded_ke=   0.0000E+00
 x-mom=   3.2232E-09     y-mom=   3.2243E-09     z-mom=   0.0000E+00
 x-rbv=   9.3318E-03     y-rbv=   9.3348E-03     z-rbv=   0.0000E+00


 time =   2.5800E-03
 mat.#=    1             inten=   1.3770E-05     kinen=   2.3419E-10     eroded_ie=   0.0000E+00     eroded_ke=   0.0000E+00
 x-mom=   5.6183E-09     y-mom=   5.6178E-09     z-mom=   0.0000E+00
 x-rbv=   1.6266E-02     y-rbv=   1.6265E-02     z-rbv=   0.0000E+00


 time =   2.5848E-03
 mat.#=    1             inten=   1.3861E-05     kinen=   3.6350E-10     eroded_ie=   0.0000E+00     eroded_ke=   0.0000E+00
 x-mom=   6.8681E-09     y-mom=   6.8695E-09     z-mom=   0.0000E+00
 x-rbv=   1.9884E-02     y-rbv=   1.9889E-02     z-rbv=   0.0000E+00


 time =   2.5899E-03
 mat.#=    1             inten=   1.3966E-05     kinen=   3.4825E-10     eroded_ie=   0.0000E+00     eroded_ke=   0.0000E+00
 x-mom=   6.8245E-09     y-mom=   6.8238E-09     z-mom=   0.0000E+00
 x-rbv=   1.9758E-02     y-rbv=   1.9756E-02     z-rbv=   0.0000E+00


 time =   2.5950E-03
 mat.#=    1             inten=   1.4055E-05     kinen=   1.9436E-10     eroded_ie=   0.0000E+00     eroded_ke=   0.0000E+00
 x-mom=   5.0929E-09     y-mom=   5.0948E-09     z-mom=   0.0000E+00
 x-rbv=   1.4745E-02     y-rbv=   1.4750E-02     z-rbv=   0.0000E+00


 time =   2.5998E-03
 mat.#=    1             inten=   1.4113E-05     kinen=   5.7199E-11     eroded_ie=   0.0000E+00     eroded_ke=   0.0000E+00
 x-mom=   2.7406E-09     y-mom=   2.7402E-09     z-mom=   0.0000E+00
 x-rbv=   7.9345E-03     y-rbv=   7.9335E-03     z-rbv=   0.0000E+00


 time =   2.6049E-03
 mat.#=    1             inten=   1.4139E-05     kinen=   4.0022E-12     eroded_ie=   0.0000E+00     eroded_ke=   0.0000E+00
 x-mom=   8.2588E-10     y-mom=   8.2729E-10     z-mom=   0.0000E+00
 x-rbv=   2.3911E-03     y-rbv=   2.3952E-03     z-rbv=   0.0000E+00


 time =   2.6099E-03
 mat.#=    1             inten=   1.4144E-05     kinen=   3.0717E-14     eroded_ie=   0.0000E+00     eroded_ke=   0.0000E+00
 x-mom=   5.3471E-11     y-mom=   5.4298E-11     z-mom=   0.0000E+00
 x-rbv=   1.5481E-04     y-rbv=   1.5720E-04     z-rbv=   0.0000E+00


 time =   2.6148E-03
 mat.#=    1             inten=   1.4154E-05     kinen=   6.8481E-12     eroded_ie=   0.0000E+00     eroded_ke=   0.0000E+00
 x-mom=   1.0023E-09     y-mom=   1.0026E-09     z-mom=   0.0000E+00
 x-rbv=   2.9018E-03     y-rbv=   2.9028E-03     z-rbv=   0.0000E+00


 time =   2.6198E-03
 mat.#=    1             inten=   1.4186E-05     kinen=   7.5009E-11     eroded_ie=   0.0000E+00     eroded_ke=   0.0000E+00
 x-mom=   3.2420E-09     y-mom=   3.2433E-09     z-mom=   0.0000E+00
 x-rbv=   9.3861E-03     y-rbv=   9.3899E-03     z-rbv=   0.0000E+00


 time =   2.6249E-03
 mat.#=    1             inten=   1.4255E-05     kinen=   2.3154E-10     eroded_ie=   0.0000E+00     eroded_ke=   0.0000E+00
 x-mom=   5.4743E-09     y-mom=   5.4740E-09     z-mom=   0.0000E+00
 x-rbv=   1.5849E-02     y-rbv=   1.5848E-02     z-rbv=   0.0000E+00


 time =   2.6300E-03
 mat.#=    1             inten=   1.4353E-05     kinen=   3.6688E-10     eroded_ie=   0.0000E+00     eroded_ke=   0.0000E+00
 x-mom=   6.9822E-09     y-mom=   6.9826E-09     z-mom=   0.0000E+00
 x-rbv=   2.0215E-02     y-rbv=   2.0216E-02     z-rbv=   0.0000E+00


 time =   2.6348E-03
 mat.#=    1             inten=   1.4453E-05     kinen=   3.4955E-10     eroded_ie=   0.0000E+00     eroded_ke=   0.0000E+00
 x-mom=   6.8125E-09     y-mom=   6.8113E-09     z-mom=   0.0000E+00
 x-rbv=   1.9723E-02     y-rbv=   1.9720E-02     z-rbv=   0.0000E+00


 time =   2.6399E-03
 mat.#=    1             inten=   1.4545E-05     kinen=   1.9658E-10     eroded_ie=   0.0000E+00     eroded_ke=   0.0000E+00
 x-mom=   5.0555E-09     y-mom=   5.0554E-09     z-mom=   0.0000E+00
 x-rbv=   1.4637E-02     y-rbv=   1.4636E-02     z-rbv=   0.0000E+00


 time =   2.6450E-03
 mat.#=    1             inten=   1.4606E-05     kinen=   5.3378E-11     eroded_ie=   0.0000E+00     eroded_ke=   0.0000E+00
 x-mom=   2.7517E-09     y-mom=   2.7500E-09     z-mom=   0.0000E+00
 x-rbv=   7.9668E-03     y-rbv=   7.9618E-03     z-rbv=   0.0000E+00


 time =   2.6498E-03
 mat.#=    1             inten=   1.4630E-05     kinen=   3.8921E-12     eroded_ie=   0.0000E+00     eroded_ke=   0.0000E+00
 x-mom=   7.5589E-10     y-mom=   7.5602E-10     z-mom=   0.0000E+00
 x-rbv=   2.1884E-03     y-rbv=   2.1888E-03     z-rbv=   0.0000E+00


 time =   2.6549E-03
 mat.#=    1             inten=   1.4637E-05     kinen=   2.9496E-14     eroded_ie=   0.0000E+00     eroded_ke=   0.0000E+00
 x-mom=   5.3624E-11     y-mom=   5.1980E-11     z-mom=   0.0000E+00
 x-rbv=   1.5525E-04     y-rbv=   1.5049E-04     z-rbv=   0.0000E+00


 time =   2.6600E-03
 mat.#=    1             inten=   1.4646E-05     kinen=   8.2059E-12     eroded_ie=   0.0000E+00     eroded_ke=   0.0000E+00
 x-mom=   1.1401E-09     y-mom=   1.1397E-09     z-mom=   0.0000E+00
 x-rbv=   3.3009E-03     y-rbv=   3.2998E-03     z-rbv=   0.0000E+00


 time =   2.6648E-03
 mat.#=    1             inten=   1.4678E-05     kinen=   7.3070E-11     eroded_ie=   0.0000E+00     eroded_ke=   0.0000E+00
 x-mom=   3.0956E-09     y-mom=   3.0947E-09     z-mom=   0.0000E+00
 x-rbv=   8.9625E-03     y-rbv=   8.9597E-03     z-rbv=   0.0000E+00


 time =   2.6698E-03
 mat.#=    1             inten=   1.4748E-05     kinen=   2.2921E-10     eroded_ie=   0.0000E+00     eroded_ke=   0.0000E+00
 x-mom=   5.5194E-09     y-mom=   5.5186E-09     z-mom=   0.0000E+00
 x-rbv=   1.5980E-02     y-rbv=   1.5977E-02     z-rbv=   0.0000E+00


 time =   2.6749E-03
 mat.#=    1             inten=   1.4846E-05     kinen=   3.6589E-10     eroded_ie=   0.0000E+00     eroded_ke=   0.0000E+00
 x-mom=   7.0005E-09     y-mom=   7.0004E-09     z-mom=   0.0000E+00
 x-rbv=   2.0268E-02     y-rbv=   2.0268E-02     z-rbv=   0.0000E+00


 time =   2.6800E-03
 mat.#=    1             inten=   1.4955E-05     kinen=   3.4506E-10     eroded_ie=   0.0000E+00     eroded_ke=   0.0000E+00
 x-mom=   6.6870E-09     y-mom=   6.6860E-09     z-mom=   0.0000E+00
 x-rbv=   1.9360E-02     y-rbv=   1.9357E-02     z-rbv=   0.0000E+00


 time =   2.6848E-03
 mat.#=    1             inten=   1.5043E-05     kinen=   1.9932E-10     eroded_ie=   0.0000E+00     eroded_ke=   0.0000E+00
 x-mom=   5.1874E-09     y-mom=   5.1880E-09     z-mom=   0.0000E+00
 x-rbv=   1.5018E-02     y-rbv=   1.5020E-02     z-rbv=   0.0000E+00


 time =   2.6899E-03
 mat.#=    1             inten=   1.5104E-05     kinen=   5.4563E-11     eroded_ie=   0.0000E+00     eroded_ke=   0.0000E+00
 x-mom=   2.7397E-09     y-mom=   2.7396E-09     z-mom=   0.0000E+00
 x-rbv=   7.9320E-03     y-rbv=   7.9316E-03     z-rbv=   0.0000E+00


 time =   2.6950E-03
 mat.#=    1             inten=   1.5131E-05     kinen=   3.2130E-12     eroded_ie=   0.0000E+00     eroded_ke=   0.0000E+00
 x-mom=   6.5425E-10     y-mom=   6.5562E-10     z-mom=   0.0000E+00
 x-rbv=   1.8942E-03     y-rbv=   1.8982E-03     z-rbv=   0.0000E+00


 time =   2.6998E-03
 mat.#=    1             inten=   1.5137E-05     kinen=   3.7442E-13     eroded_ie=   0.0000E+00     eroded_ke=   0.0000E+00
 x-mom=   1.5384E-10     y-mom=   1.5419E-10     z-mom=   0.0000E+00
 x-rbv=   4.4539E-04     y-rbv=   4.4640E-04     z-rbv=   0.0000E+00


 time =   2.7049E-03
 mat.#=    1             inten=   1.5146E-05     kinen=   7.4875E-12     eroded_ie=   0.0000E+00     eroded_ke=   0.0000E+00
 x-mom=   1.0208E-09     y-mom=   1.0222E-09     z-mom=   0.0000E+00
 x-rbv=   2.9553E-03     y-rbv=   2.9594E-03     z-rbv=   0.0000E+00


 time =   2.7100E-03
 mat.#=    1             inten=   1.5182E-05     kinen=   7.8035E-11     eroded_ie=   0.0000E+00     eroded_ke=   0.0000E+00
 x-mom=   3.2269E-09     y-mom=   3.2282E-09     z-mom=   0.0000E+00
 x-rbv=   9.3426E-03     y-rbv=   9.3462E-03     z-rbv=   0.0000E+00


 time =   2.7148E-03
 mat.#=    1             inten=   1.5248E-05     kinen=   2.2707E-10     eroded_ie=   0.0000E+00     eroded_ke=   0.0000E+00
 x-mom=   5.5453E-09     y-mom=   5.5458E-09     z-mom=   0.0000E+00
 x-rbv=   1.6055E-02     y-rbv=   1.6056E-02     z-rbv=   0.0000E+00


 time =   2.7198E-03
 mat.#=    1             inten=   1.5349E-05     kinen=   3.6471E-10     eroded_ie=   0.0000E+00     eroded_ke=   0.0000E+00
 x-mom=   6.8730E-09     y-mom=   6.8745E-09     z-mom=   0.0000E+00
 x-rbv=   1.9899E-02     y-rbv=   1.9903E-02     z-rbv=   0.0000E+00


 time =   2.7249E-03
 mat.#=    1             inten=   1.5460E-05     kinen=   3.4673E-10     eroded_ie=   0.0000E+00     eroded_ke=   0.0000E+00
 x-mom=   6.7882E-09     y-mom=   6.7877E-09     z-mom=   0.0000E+00
 x-rbv=   1.9653E-02     y-rbv=   1.9652E-02     z-rbv=   0.0000E+00


 time =   2.7300E-03
 mat.#=    1             inten=   1.5553E-05     kinen=   1.9198E-10     eroded_ie=   0.0000E+00     eroded_ke=   0.0000E+00
 x-mom=   5.0860E-09     y-mom=   5.0869E-09     z-mom=   0.0000E+00
 x-rbv=   1.4725E-02     y-rbv=   1.4727E-02     z-rbv=   0.0000E+00


 time =   2.7348E-03
 mat.#=    1             inten=   1.5612E-05     kinen=   5.5797E-11     eroded_ie=   0.0000E+00     eroded_ke=   0.0000E+00
 x-mom=   2.7033E-09     y-mom=   2.7026E-09     z-mom=   0.0000E+00
 x-rbv=   7.8265E-03     y-rbv=   7.8245E-03     z-rbv=   0.0000E+00


 time =   2.7399E-03
 mat.#=    1             inten=   1.5640E-05     kinen=   3.7110E-12     eroded_ie=   0.0000E+00     eroded_ke=   0.0000E+00
 x-mom=   7.8866E-10     y-mom=   7.8875E-10     z-mom=   0.0000E+00
 x-rbv=   2.2833E-03     y-rbv=   2.2836E-03     z-rbv=   0.0000E+00


 time =   2.7450E-03
 mat.#=    1             inten=   1.5645E-05     kinen=   9.9278E-14     eroded_ie=   0.0000E+00     eroded_ke=   0.0000E+00
 x-mom=   8.9964E-11     y-mom=   8.8785E-11     z-mom=   0.0000E+00
 x-rbv=   2.6046E-04     y-rbv=   2.5705E-04     z-rbv=   0.0000E+00


 time =   2.7498E-03
 mat.#=    1             inten=   1.5656E-05     kinen=   7.1375E-12     eroded_ie=   0.0000E+00     eroded_ke=   0.0000E+00
 x-mom=   9.9170E-10     y-mom=   9.9194E-10     z-mom=   0.0000E+00
 x-rbv=   2.8712E-03     y-rbv=   2.8719E-03     z-rbv=   0.0000E+00


 time =   2.7549E-03
 mat.#=    1             inten=   1.5691E-05     kinen=   7.6723E-11     eroded_ie=   0.0000E+00     eroded_ke=   0.0000E+00
 x-mom=   3.2780E-09     y-mom=   3.2767E-09     z-mom=   0.0000E+00
 x-rbv=   9.4906E-03     y-rbv=   9.4866E-03     z-rbv=   0.0000E+00


 time =   2.7600E-03
 mat.#=    1             inten=   1.5763E-05     kinen=   2.3401E-10     eroded_ie=   0.0000E+00     eroded_ke=   0.0000E+00
 x-mom=   5.5358E-09     y-mom=   5.5360E-09     z-mom=   0.0000E+00
 x-rbv=   1.6027E-02     y-rbv=   1.6028E-02     z-rbv=   0.0000E+00


 time =   2.7648E-03
 mat.#=    1             inten=   1.5860E-05     kinen=   3.6369E-10     eroded_ie=   0.0000E+00     eroded_ke=   0.0000E+00
 x-mom=   6.9287E-09     y-mom=   6.9278E-09     z-mom=   0.0000E+00
 x-rbv=   2.0060E-02     y-rbv=   2.0057E-02     z-rbv=   0.0000E+00


 time =   2.7698E-03
 mat.#=    1             inten=   1.5971E-05     kinen=   3.4839E-10     eroded_ie=   0.0000E+00     eroded_ke=   0.0000E+00
 x-mom=   6.8377E-09     y-mom=   6.8369E-09     z-mom=   0.0000E+00
 x-rbv=   1.9797E-02     y-rbv=   1.9794E-02     z-rbv=   0.0000E+00


 time =   2.7749E-03
 mat.#=    1             inten=   1.6068E-05     kinen=   1.9417E-10     eroded_ie=   0.0000E+00     eroded_ke=   0.0000E+00
 x-mom=   5.0138E-09     y-mom=   5.0130E-09     z-mom=   0.0000E+00
 x-rbv=   1.4516E-02     y-rbv=   1.4514E-02     z-rbv=   0.0000E+00


 time =   2.7800E-03
 mat.#=    1             inten=   1.6131E-05     kinen=   5.1913E-11     eroded_ie=   0.0000E+00     eroded_ke=   0.0000E+00
 x-mom=   2.6905E-09     y-mom=   2.6898E-09     z-mom=   0.0000E+00
 x-rbv=   7.7896E-03     y-rbv=   7.7875E-03     z-rbv=   0.0000E+00


 time =   2.7848E-03
 mat.#=    1             inten=   1.6156E-05     kinen=   3.7672E-12     eroded_ie=   0.0000E+00     eroded_ke=   0.0000E+00
 x-mom=   7.7118E-10     y-mom=   7.7110E-10     z-mom=   0.0000E+00
 x-rbv=   2.2327E-03     y-rbv=   2.2325E-03     z-rbv=   0.0000E+00


 time =   2.7899E-03
 mat.#=    1             inten=   1.6163E-05     kinen=   6.3843E-15     eroded_ie=   0.0000E+00     eroded_ke=   0.0000E+00
 x-mom=   2.7724E-11     y-mom=   2.7723E-11     z-mom=   0.0000E+00
 x-rbv=   8.0267E-05     y-rbv=   8.0263E-05     z-rbv=   0.0000E+00


 time =   2.7950E-03
 mat.#=    1             inten=   1.6174E-05     kinen=   8.5575E-12     eroded_ie=   0.0000E+00     eroded_ke=   0.0000E+00
 x-mom=   1.1697E-09     y-mom=   1.1707E-09     z-mom=   0.0000E+00
 x-rbv=   3.3864E-03     y-rbv=   3.3893E-03     z-rbv=   0.0000E+00


 time =   2.7998E-03
 mat.#=    1             inten=   1.6207E-05     kinen=   7.4696E-11     eroded_ie=   0.0000E+00     eroded_ke=   0.0000E+00
 x-mom=   3.1470E-09     y-mom=   3.1467E-09     z-mom=   0.0000E+00
 x-rbv=   9.1112E-03     y-rbv=   9.1103E-03     z-rbv=   0.0000E+00


 time =   2.8049E-03
 mat.#=    1             inten=   1.6281E-05     kinen=   2.3172E-10     eroded_ie=   0.0000E+00     eroded_ke=   0.0000E+00
 x-mom=   5.5213E-09     y-mom=   5.5238E-09     z-mom=   0.0000E+00
 x-rbv=   1.5985E-02     y-rbv=   1.5993E-02     z-rbv=   0.0000E+00


 time =   2.8100E-03
 mat.#=    1             inten=   1.6385E-05     kinen=   3.6714E-10     eroded_ie=   0.0000E+00     eroded_ke=   0.0000E+00
 x-mom=   7.0169E-09     y-mom=   7.0161E-09     z-mom=   0.0000E+00
 x-rbv=   2.0315E-02     y-rbv=   2.0313E-02     z-rbv=   0.0000E+00


 time =   2.8148E-03
 mat.#=    1             inten=   1.6492E-05     kinen=   3.4953E-10     eroded_ie=   0.0000E+00     eroded_ke=   0.0000E+00
 x-mom=   6.7364E-09     y-mom=   6.7388E-09     z-mom=   0.0000E+00
 x-rbv=   1.9503E-02     y-rbv=   1.9510E-02     z-rbv=   0.0000E+00


 time =   2.8198E-03
 mat.#=    1             inten=   1.6592E-05     kinen=   1.9678E-10     eroded_ie=   0.0000E+00     eroded_ke=   0.0000E+00
 x-mom=   5.1297E-09     y-mom=   5.1295E-09     z-mom=   0.0000E+00
 x-rbv=   1.4851E-02     y-rbv=   1.4851E-02     z-rbv=   0.0000E+00


 time =   2.8249E-03
 mat.#=    1             inten=   1.6655E-05     kinen=   5.3270E-11     eroded_ie=   0.0000E+00     eroded_ke=   0.0000E+00
 x-mom=   2.7311E-09     y-mom=   2.7327E-09     z-mom=   0.0000E+00
 x-rbv=   7.9070E-03     y-rbv=   7.9117E-03     z-rbv=   0.0000E+00
