$# LS-DYNA Keyword file created by LS-PrePost(R) V4.2 - 09Jan2016(11:00)
$# Created on Apr-07-2016 (14:22:08)
*KEYWORD  
*CONTROL_DYNAMIC_RELAXATION
$#  nrcyck     drtol    drfctr    drterm    tssfdr    irelal     edttl    idrflg
       100     0.001     0.995       0.0       0.0         0      0.04         0
*DATABASE_BINARY_D3DRLF
$#    cycl      lcdt      beam     npltc    psetid      
       1.0         0         0         0         0
*DATABASE_CROSS_SECTION_PLANE_ID
$#    csid                                                                 title
         1                                                                      
$#    psid       xct       yct       zct       xch       ych       zch    radius
         0       0.0       0.0      12.5       0.0       0.0      20.0     100.0
$#    xhev      yhev      zhev      lenl      lenm        id     itype     
       0.0       0.0       0.0       0.0       0.0         0         0
*BOUNDARY_SPC_SET
$#    nsid       cid      dofx      dofy      dofz     dofrx     dofry     dofrz
         1         0         1         0         0         0         1         1
*SET_NODE_LIST_TITLE
NODESET(SPC) 1
$#     sid       da1       da2       da3       da4    solver      
         1       0.0       0.0       0.0       0.0MECH
$#    nid1      nid2      nid3      nid4      nid5      nid6      nid7      nid8
         2        29        30        31        32        33        34        35
        36        37       367       368       371       372       375       376
       379       381       383       385       387       389       391       393
       395       397       399       401       403       405       407       409
       411       413       415       416       419       420       423       424
       870       871       873       878       884       888       891       893
       895       898      1005      1006      1009      1011      1013      1015
      1017      1019      1021      1022         0         0         0         0
*BOUNDARY_SPC_SET
$#    nsid       cid      dofx      dofy      dofz     dofrx     dofry     dofrz
         2         0         0         1         0         1         0         1
*SET_NODE_LIST_TITLE
NODESET(SPC) 2
$#     sid       da1       da2       da3       da4    solver      
         2       0.0       0.0       0.0       0.0MECH
$#    nid1      nid2      nid3      nid4      nid5      nid6      nid7      nid8
         1        38        51        52        53        54        55        56
        57        58       211       212       215       216       219       220
       427       428       431       432       435       436       499       501
       503       505       507       509       511       513       515       517
       519       521       523       525       527       529       531       533
       779       780       904       905       907       926       927       943
       947       949       953       954      1025      1026      1049      1051
      1053      1055      1057      1059         0         0         0         0
*CONTACT_AUTOMATIC_SINGLE_SURFACE_ID
$#     cid                                                                 title
         1                                                                      
$#    ssid      msid     sstyp     mstyp    sboxid    mboxid       spr       mpr
         0         0         5         0         0         0         0         0
$#      fs        fd        dc        vc       vdc    penchk        bt        dt
       0.1       0.1       0.0       0.0      20.0         0       0.01.00000E20
$#     sfs       sfm       sst       mst      sfst      sfmt       fsf       vsf
       1.0       1.0       0.0       0.0       1.0       1.0       1.0       1.0
$#    soft    sofscl    lcidab    maxpar     sbopt     depth     bsort    frcfrq
         1       0.1         0     1.025       2.0         2         0         1
$#  penmax    thkopt    shlthk     snlog      isym     i2d3d    sldthk    sldstf
       0.0         0         0         0         0         0       0.0       0.0
$#    igap    ignodprfac/mpadtstif/mpar2   unused     unused    flangl   cid_rcf
         1         2       0.0       0.0                           0.0         0
*PART
$#                                                                         title
                                                                                
$#     pid     secid       mid     eosid      hgid      grav    adpopt      tmid
         2         1         2         0         0         0         0         0
*SECTION_SOLID
$#   secid    elform       aet   
         1        -2         0
*MAT_ELASTIC_TITLE
Middle layer
$#     mid        ro         e        pr        da        db  not used        
         21.00000E-9       1.00.47999999       0.0       0.0         0
*PART
$#                                                                         title
                                                                                
$#     pid     secid       mid     eosid      hgid      grav    adpopt      tmid
         3         1         1         0         0         0         0         0
*MAT_ELASTIC_TITLE
Outer layer and bolt
$#     mid        ro         e        pr        da        db  not used        
         17.85000E-9  210000.00.30000001       0.0       0.0         0
*PART
$#                                                                         title
Bolt
$#     pid     secid       mid     eosid      hgid      grav    adpopt      tmid
         4         1         1         0         0         0         0         0
*INITIAL_STRESS_SECTION
$#   issid      csid      lcid      psid       vid   
         1         1         1         1         0
*DEFINE_CURVE_TITLE
CurveGen_1
$#    lcid      sidr       sfa       sfo      offa      offo    dattyp     lcint
         1         1       0.0       0.0       0.0       0.0         0         0
$#                a1                  o1  
                 0.0                 0.0
       2.040816e-006          0.01027304
       4.081633e-006          0.04104993
       6.122449e-006          0.09220421
       8.163265e-006          0.16352569
       1.020408e-005          0.25472125
       1.224490e-005           0.3654162
       1.428571e-005          0.49515566
       1.632653e-005          0.64340645
       1.836735e-005          0.80955946
       2.040816e-005           0.9929319
       2.244898e-005          1.19277024
       2.448979e-005          1.40825319
       2.653061e-005          1.63849556
       2.857143e-005          1.88255095
       3.061225e-005          2.13941669
       3.265306e-005          2.40803719
       3.469388e-005          2.68730855
       3.673469e-005          2.97608328
       3.877551e-005          3.27317476
$ ... 79 like lines cut
*SET_PART_LIST
$#     sid       da1       da2       da3       da4    solver      
         1       0.0       0.0       0.0       0.0MECH
$#    pid1      pid2      pid3      pid4      pid5      pid6      pid7      pid8
         4         0         0         0         0         0         0         0
*ELEMENT_SOLID
$#   eid     pid      n1      n2      n3      n4      n5      n6      n7      n8
     157       2     191     167     203     202     164     164     204     204
     158       2     202     203     206     205     204     204     207     207
     159       2     205     206     209     208     207     207     210     210
     160       2      58       1       3      78     211     212     213     214
     161       2     211     212     213     214     215     216     217     218
     162       2     215     216     217     218     219     220     221     222
     163       2       3       4      84      78     213     223     224     214
     164       2     213     223     224     214     217     225     226     218
     165       2     217     225     226     218     221     227     228     222
     166       2       4       5      91      84     223     229     230     224
     167       2     223     229     230     224     225     231     232     226
     168       2     225     231     232     226     227     233     234     228
     169       2       5       6      92      91     229     235     236     230
     170       2     229     235     236     230     231     237     238     232
     171       2     231     237     238     232     233     239     240     234
     172       2       6       7      93      92     235     241     242     236
     173       2     235     241     242     236     237     243     244     238
     174       2     237     243     244     238     239     245     246     240
     175       2       7       8      94      93     241     247     248     242
     176       2     241     247     248     242     243     249     250     244
$ ... 896 like lines cut
*NODE
$#   nid               x               y               z      tc      rc  
       1           100.0             0.0             0.0       0       0
       2  -3.828569e-014           100.0             0.0       0       0
       3     99.83081818      5.81448269             0.0       0       0
       4     99.32383728     11.60929108             0.0       0       0
       5     98.48077393     17.36481857             0.0       0       0
       6     97.30448914     23.06158638             0.0       0       0
       7      95.7989502     28.68032265             0.0       0       0
       8     93.96926117     34.20201492             0.0       0       0
       9      91.8216095     39.60797501             0.0       0       0
      10     89.36326599     44.87991714             0.0       0       0
      11     86.60253906            50.0             0.0       0       0
      12     83.54878235     54.95089722             0.0       0       0
      13     80.21231842     59.71585846             0.0       0       0
      14     76.60444641     64.27876282             0.0       0       0
      15     72.73736572     68.62416077             0.0       0       0
      16     68.62416077     72.73736572             0.0       0       0
      17     64.27876282     76.60444641             0.0       0       0
      18     59.71585846     80.21231842             0.0       0       0
      19     54.95089722     83.54878235             0.0       0       0
      20            50.0     86.60253906             0.0       0       0
$ ... 1321 like lines cut
*END
