Stellenbosch University
    EMAIL: 19673418@sun.ac.za
      FAX: ++++
TELEPHONE: 0719265638 (Naudé Conradie)
#
LS-DYNA         08292019
 OPTION: REVISION 7
#
MACHINE: D0 06 5C E6 E68D2BA2 C9C4253E B75E4398 D558E2FB
# AnchorFree TAP-Windows Adapter V9 (DOWN)
MACHINE: 44 A2 F6 82 67DF19DC 8AA4A71F 22630464 EB49BC09
# Realtek PCIe FE Family Controller (UP)
MACHINE: 06 EB 5D E2 CCFECFD2 31EB112F 589E5A56 516AD6FC
# Bluetooth Device (Personal Area Network) (DOWN)
MACHINE: 05 EB 5D E2 6D84C30B 92D47F69 D4C4340A D85C30B6
# Broadcom BCM43142 802.11 bgn Wi-Fi Adapter (DOWN)
MACHINE: 05 EB 5D E0 550639A8 46DD56A9 01B6873F B4D2A1E2
# Microsoft Wi-Fi Direct Virtual Adapter (DOWN)
MACHINE: 05 E3 5D E0 1A568229 52D6480D DDA1DDFE 06B222CC
# Microsoft Wi-Fi Direct Virtual Adapter #2 (DOWN)
MACHINE: 02 FE BF 03 AD1B6212 9735C580 60E20433 FDFD3388
# Generic (UP)
# Number of CPUs: 4 
# ProductId     : 00327-60000-00000-AA362
# LSTC_FILE= C:\LSDYNA\program\lstc_file
# LSTC_DEFGEO(ls-dyna,chrysler) = ls-dyna
# LSTC_OUTPUT(lstc,cadfem,ge)   = lstc
# LSTC_FORMAT(taurus,ansys,both)= taurus
# LSTC_BINARY(default,32ieee)   = 950
# LSTC_MEMORY(fix,auto,heap)    = fixed
# LSTC_ELENGTH                  = 0
# Written by    : LS-DYNA
# Version number: smp s R7.0.0   
# Revision      : 79055     
# Version date  : 01/10/2013
# Platform      : WINDOWS X64                             
# OS Level      : Windows XP/Vista/7 SRV 2003/2008        
# Feature       : SMP enabled
# Host Name     : DESKTOP-UFIB03G                         
# Source version: smp s R7.0.0    Rev 79069      SMP
# Source date   : 01/10/2013
# Source time   : 16:39:15  
# Precision     : Single(I4R4)
# nlq(maximum)  :      136
# nlq(default)  :      136
# Product ID    : 79069      ls971/releases/R7.0.0
#
